* NGSPICE file created from tiny_user_project.ext - technology: gf180mcuC

* Black-box entry subcircuit for gf180mcu_fd_sc_mcu7t5v0__fill_2 abstract view
.subckt gf180mcu_fd_sc_mcu7t5v0__fill_2 VDD VSS
.ends

* Black-box entry subcircuit for gf180mcu_fd_sc_mcu7t5v0__fill_1 abstract view
.subckt gf180mcu_fd_sc_mcu7t5v0__fill_1 VDD VSS
.ends

* Black-box entry subcircuit for gf180mcu_fd_sc_mcu7t5v0__fillcap_32 abstract view
.subckt gf180mcu_fd_sc_mcu7t5v0__fillcap_32 VDD VSS
.ends

* Black-box entry subcircuit for gf180mcu_fd_sc_mcu7t5v0__fillcap_4 abstract view
.subckt gf180mcu_fd_sc_mcu7t5v0__fillcap_4 VDD VSS
.ends

* Black-box entry subcircuit for gf180mcu_fd_sc_mcu7t5v0__antenna abstract view
.subckt gf180mcu_fd_sc_mcu7t5v0__antenna I VDD VSS
.ends

* Black-box entry subcircuit for gf180mcu_fd_sc_mcu7t5v0__dffq_1 abstract view
.subckt gf180mcu_fd_sc_mcu7t5v0__dffq_1 D CLK Q VDD VSS
.ends

* Black-box entry subcircuit for gf180mcu_fd_sc_mcu7t5v0__fillcap_8 abstract view
.subckt gf180mcu_fd_sc_mcu7t5v0__fillcap_8 VDD VSS
.ends

* Black-box entry subcircuit for gf180mcu_fd_sc_mcu7t5v0__nand3_1 abstract view
.subckt gf180mcu_fd_sc_mcu7t5v0__nand3_1 A1 A2 A3 ZN VDD VSS
.ends

* Black-box entry subcircuit for gf180mcu_fd_sc_mcu7t5v0__clkbuf_1 abstract view
.subckt gf180mcu_fd_sc_mcu7t5v0__clkbuf_1 I Z VDD VSS
.ends

* Black-box entry subcircuit for gf180mcu_fd_sc_mcu7t5v0__oai21_1 abstract view
.subckt gf180mcu_fd_sc_mcu7t5v0__oai21_1 A1 A2 B ZN VDD VSS
.ends

* Black-box entry subcircuit for gf180mcu_fd_sc_mcu7t5v0__nor3_1 abstract view
.subckt gf180mcu_fd_sc_mcu7t5v0__nor3_1 A1 A2 A3 ZN VDD VSS
.ends

* Black-box entry subcircuit for gf180mcu_fd_sc_mcu7t5v0__clkinv_1 abstract view
.subckt gf180mcu_fd_sc_mcu7t5v0__clkinv_1 I ZN VDD VSS
.ends

* Black-box entry subcircuit for gf180mcu_fd_sc_mcu7t5v0__filltie abstract view
.subckt gf180mcu_fd_sc_mcu7t5v0__filltie VDD VSS
.ends

* Black-box entry subcircuit for gf180mcu_fd_sc_mcu7t5v0__fillcap_16 abstract view
.subckt gf180mcu_fd_sc_mcu7t5v0__fillcap_16 VDD VSS
.ends

* Black-box entry subcircuit for gf180mcu_fd_sc_mcu7t5v0__xor3_1 abstract view
.subckt gf180mcu_fd_sc_mcu7t5v0__xor3_1 A1 A2 A3 Z VDD VSS
.ends

* Black-box entry subcircuit for gf180mcu_fd_sc_mcu7t5v0__buf_1 abstract view
.subckt gf180mcu_fd_sc_mcu7t5v0__buf_1 I Z VDD VSS
.ends

* Black-box entry subcircuit for gf180mcu_fd_sc_mcu7t5v0__and4_1 abstract view
.subckt gf180mcu_fd_sc_mcu7t5v0__and4_1 A1 A2 A3 A4 Z VDD VSS
.ends

* Black-box entry subcircuit for gf180mcu_fd_sc_mcu7t5v0__aoi22_1 abstract view
.subckt gf180mcu_fd_sc_mcu7t5v0__aoi22_1 A1 A2 B1 B2 ZN VDD VSS
.ends

* Black-box entry subcircuit for gf180mcu_fd_sc_mcu7t5v0__nand2_1 abstract view
.subckt gf180mcu_fd_sc_mcu7t5v0__nand2_1 A1 A2 ZN VDD VSS
.ends

* Black-box entry subcircuit for gf180mcu_fd_sc_mcu7t5v0__fillcap_64 abstract view
.subckt gf180mcu_fd_sc_mcu7t5v0__fillcap_64 VDD VSS
.ends

* Black-box entry subcircuit for gf180mcu_fd_sc_mcu7t5v0__and2_1 abstract view
.subckt gf180mcu_fd_sc_mcu7t5v0__and2_1 A1 A2 Z VDD VSS
.ends

* Black-box entry subcircuit for gf180mcu_fd_sc_mcu7t5v0__dlyc_1 abstract view
.subckt gf180mcu_fd_sc_mcu7t5v0__dlyc_1 I Z VDD VSS
.ends

* Black-box entry subcircuit for gf180mcu_fd_sc_mcu7t5v0__dlyb_1 abstract view
.subckt gf180mcu_fd_sc_mcu7t5v0__dlyb_1 I Z VDD VSS
.ends

* Black-box entry subcircuit for gf180mcu_fd_sc_mcu7t5v0__nand4_1 abstract view
.subckt gf180mcu_fd_sc_mcu7t5v0__nand4_1 A1 A2 A3 A4 ZN VDD VSS
.ends

* Black-box entry subcircuit for gf180mcu_fd_sc_mcu7t5v0__or2_1 abstract view
.subckt gf180mcu_fd_sc_mcu7t5v0__or2_1 A1 A2 Z VDD VSS
.ends

* Black-box entry subcircuit for gf180mcu_fd_sc_mcu7t5v0__nor2_1 abstract view
.subckt gf180mcu_fd_sc_mcu7t5v0__nor2_1 A1 A2 ZN VDD VSS
.ends

* Black-box entry subcircuit for gf180mcu_fd_sc_mcu7t5v0__aoi222_2 abstract view
.subckt gf180mcu_fd_sc_mcu7t5v0__aoi222_2 A1 A2 B1 B2 C1 C2 ZN VDD VSS
.ends

* Black-box entry subcircuit for gf180mcu_fd_sc_mcu7t5v0__oai21_2 abstract view
.subckt gf180mcu_fd_sc_mcu7t5v0__oai21_2 A1 A2 B ZN VDD VSS
.ends

* Black-box entry subcircuit for gf180mcu_fd_sc_mcu7t5v0__aoi21_1 abstract view
.subckt gf180mcu_fd_sc_mcu7t5v0__aoi21_1 A1 A2 B ZN VDD VSS
.ends

* Black-box entry subcircuit for gf180mcu_fd_sc_mcu7t5v0__aoi221_1 abstract view
.subckt gf180mcu_fd_sc_mcu7t5v0__aoi221_1 A1 A2 B1 B2 C ZN VDD VSS
.ends

* Black-box entry subcircuit for gf180mcu_fd_sc_mcu7t5v0__xor2_1 abstract view
.subckt gf180mcu_fd_sc_mcu7t5v0__xor2_1 A1 A2 Z VDD VSS
.ends

* Black-box entry subcircuit for gf180mcu_fd_sc_mcu7t5v0__aoi21_2 abstract view
.subckt gf180mcu_fd_sc_mcu7t5v0__aoi21_2 A1 A2 B ZN VDD VSS
.ends

* Black-box entry subcircuit for gf180mcu_fd_sc_mcu7t5v0__oai211_1 abstract view
.subckt gf180mcu_fd_sc_mcu7t5v0__oai211_1 A1 A2 B C ZN VDD VSS
.ends

* Black-box entry subcircuit for gf180mcu_fd_sc_mcu7t5v0__oai31_1 abstract view
.subckt gf180mcu_fd_sc_mcu7t5v0__oai31_1 A1 A2 A3 B ZN VDD VSS
.ends

* Black-box entry subcircuit for gf180mcu_fd_sc_mcu7t5v0__nor4_4 abstract view
.subckt gf180mcu_fd_sc_mcu7t5v0__nor4_4 A1 A2 A3 A4 ZN VDD VSS
.ends

* Black-box entry subcircuit for gf180mcu_fd_sc_mcu7t5v0__oai22_1 abstract view
.subckt gf180mcu_fd_sc_mcu7t5v0__oai22_1 A1 A2 B1 B2 ZN VDD VSS
.ends

* Black-box entry subcircuit for gf180mcu_fd_sc_mcu7t5v0__mux2_2 abstract view
.subckt gf180mcu_fd_sc_mcu7t5v0__mux2_2 I0 I1 S Z VDD VSS
.ends

* Black-box entry subcircuit for gf180mcu_fd_sc_mcu7t5v0__nand4_2 abstract view
.subckt gf180mcu_fd_sc_mcu7t5v0__nand4_2 A1 A2 A3 A4 ZN VDD VSS
.ends

* Black-box entry subcircuit for gf180mcu_fd_sc_mcu7t5v0__clkbuf_3 abstract view
.subckt gf180mcu_fd_sc_mcu7t5v0__clkbuf_3 I Z VDD VSS
.ends

* Black-box entry subcircuit for gf180mcu_fd_sc_mcu7t5v0__tiel abstract view
.subckt gf180mcu_fd_sc_mcu7t5v0__tiel ZN VDD VSS
.ends

* Black-box entry subcircuit for gf180mcu_fd_sc_mcu7t5v0__endcap abstract view
.subckt gf180mcu_fd_sc_mcu7t5v0__endcap VDD VSS
.ends

* Black-box entry subcircuit for gf180mcu_fd_sc_mcu7t5v0__aoi211_1 abstract view
.subckt gf180mcu_fd_sc_mcu7t5v0__aoi211_1 A1 A2 B C ZN VDD VSS
.ends

* Black-box entry subcircuit for gf180mcu_fd_sc_mcu7t5v0__aoi221_2 abstract view
.subckt gf180mcu_fd_sc_mcu7t5v0__aoi221_2 A1 A2 B1 B2 C ZN VDD VSS
.ends

* Black-box entry subcircuit for gf180mcu_fd_sc_mcu7t5v0__nor3_2 abstract view
.subckt gf180mcu_fd_sc_mcu7t5v0__nor3_2 A1 A2 A3 ZN VDD VSS
.ends

* Black-box entry subcircuit for gf180mcu_fd_sc_mcu7t5v0__clkbuf_2 abstract view
.subckt gf180mcu_fd_sc_mcu7t5v0__clkbuf_2 I Z VDD VSS
.ends

* Black-box entry subcircuit for gf180mcu_fd_sc_mcu7t5v0__aoi222_1 abstract view
.subckt gf180mcu_fd_sc_mcu7t5v0__aoi222_1 A1 A2 B1 B2 C1 C2 ZN VDD VSS
.ends

* Black-box entry subcircuit for gf180mcu_fd_sc_mcu7t5v0__and3_1 abstract view
.subckt gf180mcu_fd_sc_mcu7t5v0__and3_1 A1 A2 A3 Z VDD VSS
.ends

* Black-box entry subcircuit for gf180mcu_fd_sc_mcu7t5v0__oai22_2 abstract view
.subckt gf180mcu_fd_sc_mcu7t5v0__oai22_2 A1 A2 B1 B2 ZN VDD VSS
.ends

* Black-box entry subcircuit for gf180mcu_fd_sc_mcu7t5v0__nor4_2 abstract view
.subckt gf180mcu_fd_sc_mcu7t5v0__nor4_2 A1 A2 A3 A4 ZN VDD VSS
.ends

* Black-box entry subcircuit for gf180mcu_fd_sc_mcu7t5v0__nor2_2 abstract view
.subckt gf180mcu_fd_sc_mcu7t5v0__nor2_2 A1 A2 ZN VDD VSS
.ends

* Black-box entry subcircuit for gf180mcu_fd_sc_mcu7t5v0__buf_2 abstract view
.subckt gf180mcu_fd_sc_mcu7t5v0__buf_2 I Z VDD VSS
.ends

* Black-box entry subcircuit for gf180mcu_fd_sc_mcu7t5v0__nor4_1 abstract view
.subckt gf180mcu_fd_sc_mcu7t5v0__nor4_1 A1 A2 A3 A4 ZN VDD VSS
.ends

* Black-box entry subcircuit for gf180mcu_fd_sc_mcu7t5v0__oai211_2 abstract view
.subckt gf180mcu_fd_sc_mcu7t5v0__oai211_2 A1 A2 B C ZN VDD VSS
.ends

* Black-box entry subcircuit for gf180mcu_fd_sc_mcu7t5v0__dffsnq_1 abstract view
.subckt gf180mcu_fd_sc_mcu7t5v0__dffsnq_1 D SETN CLK Q VDD VSS
.ends

* Black-box entry subcircuit for gf180mcu_fd_sc_mcu7t5v0__or3_1 abstract view
.subckt gf180mcu_fd_sc_mcu7t5v0__or3_1 A1 A2 A3 Z VDD VSS
.ends

* Black-box entry subcircuit for gf180mcu_fd_sc_mcu7t5v0__aoi22_2 abstract view
.subckt gf180mcu_fd_sc_mcu7t5v0__aoi22_2 A1 A2 B1 B2 ZN VDD VSS
.ends

* Black-box entry subcircuit for gf180mcu_fd_sc_mcu7t5v0__oai32_1 abstract view
.subckt gf180mcu_fd_sc_mcu7t5v0__oai32_1 A1 A2 A3 B1 B2 ZN VDD VSS
.ends

* Black-box entry subcircuit for gf180mcu_fd_sc_mcu7t5v0__inv_1 abstract view
.subckt gf180mcu_fd_sc_mcu7t5v0__inv_1 I ZN VDD VSS
.ends

* Black-box entry subcircuit for gf180mcu_fd_sc_mcu7t5v0__oai31_2 abstract view
.subckt gf180mcu_fd_sc_mcu7t5v0__oai31_2 A1 A2 A3 B ZN VDD VSS
.ends

* Black-box entry subcircuit for gf180mcu_fd_sc_mcu7t5v0__mux4_1 abstract view
.subckt gf180mcu_fd_sc_mcu7t5v0__mux4_1 I0 I1 I2 I3 S0 S1 Z VDD VSS
.ends

* Black-box entry subcircuit for gf180mcu_fd_sc_mcu7t5v0__oai221_1 abstract view
.subckt gf180mcu_fd_sc_mcu7t5v0__oai221_1 A1 A2 B1 B2 C ZN VDD VSS
.ends

* Black-box entry subcircuit for gf180mcu_fd_sc_mcu7t5v0__clkinv_2 abstract view
.subckt gf180mcu_fd_sc_mcu7t5v0__clkinv_2 I ZN VDD VSS
.ends

* Black-box entry subcircuit for gf180mcu_fd_sc_mcu7t5v0__nand4_4 abstract view
.subckt gf180mcu_fd_sc_mcu7t5v0__nand4_4 A1 A2 A3 A4 ZN VDD VSS
.ends

* Black-box entry subcircuit for gf180mcu_fd_sc_mcu7t5v0__oai221_2 abstract view
.subckt gf180mcu_fd_sc_mcu7t5v0__oai221_2 A1 A2 B1 B2 C ZN VDD VSS
.ends

* Black-box entry subcircuit for gf180mcu_fd_sc_mcu7t5v0__nand3_2 abstract view
.subckt gf180mcu_fd_sc_mcu7t5v0__nand3_2 A1 A2 A3 ZN VDD VSS
.ends

* Black-box entry subcircuit for gf180mcu_fd_sc_mcu7t5v0__or4_1 abstract view
.subckt gf180mcu_fd_sc_mcu7t5v0__or4_1 A1 A2 A3 A4 Z VDD VSS
.ends

* Black-box entry subcircuit for gf180mcu_fd_sc_mcu7t5v0__aoi222_4 abstract view
.subckt gf180mcu_fd_sc_mcu7t5v0__aoi222_4 A1 A2 B1 B2 C1 C2 ZN VDD VSS
.ends

* Black-box entry subcircuit for gf180mcu_fd_sc_mcu7t5v0__oai222_1 abstract view
.subckt gf180mcu_fd_sc_mcu7t5v0__oai222_1 A1 A2 B1 B2 C1 C2 ZN VDD VSS
.ends

* Black-box entry subcircuit for gf180mcu_fd_sc_mcu7t5v0__aoi211_2 abstract view
.subckt gf180mcu_fd_sc_mcu7t5v0__aoi211_2 A1 A2 B C ZN VDD VSS
.ends

* Black-box entry subcircuit for gf180mcu_fd_sc_mcu7t5v0__aoi221_4 abstract view
.subckt gf180mcu_fd_sc_mcu7t5v0__aoi221_4 A1 A2 B1 B2 C ZN VDD VSS
.ends

* Black-box entry subcircuit for gf180mcu_fd_sc_mcu7t5v0__aoi211_4 abstract view
.subckt gf180mcu_fd_sc_mcu7t5v0__aoi211_4 A1 A2 B C ZN VDD VSS
.ends

* Black-box entry subcircuit for gf180mcu_fd_sc_mcu7t5v0__inv_2 abstract view
.subckt gf180mcu_fd_sc_mcu7t5v0__inv_2 I ZN VDD VSS
.ends

* Black-box entry subcircuit for gf180mcu_fd_sc_mcu7t5v0__dlyd_1 abstract view
.subckt gf180mcu_fd_sc_mcu7t5v0__dlyd_1 I Z VDD VSS
.ends

* Black-box entry subcircuit for gf180mcu_fd_sc_mcu7t5v0__oai32_2 abstract view
.subckt gf180mcu_fd_sc_mcu7t5v0__oai32_2 A1 A2 A3 B1 B2 ZN VDD VSS
.ends

* Black-box entry subcircuit for gf180mcu_fd_sc_mcu7t5v0__oai22_4 abstract view
.subckt gf180mcu_fd_sc_mcu7t5v0__oai22_4 A1 A2 B1 B2 ZN VDD VSS
.ends

* Black-box entry subcircuit for gf180mcu_fd_sc_mcu7t5v0__aoi21_4 abstract view
.subckt gf180mcu_fd_sc_mcu7t5v0__aoi21_4 A1 A2 B ZN VDD VSS
.ends

* Black-box entry subcircuit for gf180mcu_fd_sc_mcu7t5v0__nor3_4 abstract view
.subckt gf180mcu_fd_sc_mcu7t5v0__nor3_4 A1 A2 A3 ZN VDD VSS
.ends

* Black-box entry subcircuit for gf180mcu_fd_sc_mcu7t5v0__nand2_2 abstract view
.subckt gf180mcu_fd_sc_mcu7t5v0__nand2_2 A1 A2 ZN VDD VSS
.ends

* Black-box entry subcircuit for gf180mcu_fd_sc_mcu7t5v0__dffrnq_1 abstract view
.subckt gf180mcu_fd_sc_mcu7t5v0__dffrnq_1 D RN CLK Q VDD VSS
.ends

* Black-box entry subcircuit for gf180mcu_fd_sc_mcu7t5v0__xnor2_1 abstract view
.subckt gf180mcu_fd_sc_mcu7t5v0__xnor2_1 A1 A2 ZN VDD VSS
.ends

.subckt tiny_user_project io_in[0] io_in[10] io_in[11] io_in[12] io_in[13] io_in[14]
+ io_in[15] io_in[16] io_in[17] io_in[18] io_in[19] io_in[1] io_in[20] io_in[21] io_in[22]
+ io_in[23] io_in[24] io_in[25] io_in[26] io_in[27] io_in[28] io_in[29] io_in[2] io_in[30]
+ io_in[31] io_in[32] io_in[33] io_in[34] io_in[35] io_in[36] io_in[37] io_in[3] io_in[4]
+ io_in[5] io_in[6] io_in[7] io_in[8] io_in[9] io_oeb[0] io_oeb[10] io_oeb[11] io_oeb[12]
+ io_oeb[13] io_oeb[14] io_oeb[15] io_oeb[16] io_oeb[17] io_oeb[18] io_oeb[19] io_oeb[1]
+ io_oeb[20] io_oeb[21] io_oeb[22] io_oeb[23] io_oeb[24] io_oeb[25] io_oeb[26] io_oeb[27]
+ io_oeb[28] io_oeb[29] io_oeb[2] io_oeb[30] io_oeb[31] io_oeb[32] io_oeb[33] io_oeb[34]
+ io_oeb[35] io_oeb[36] io_oeb[37] io_oeb[3] io_oeb[4] io_oeb[5] io_oeb[6] io_oeb[7]
+ io_oeb[8] io_oeb[9] io_out[0] io_out[10] io_out[11] io_out[12] io_out[13] io_out[14]
+ io_out[15] io_out[16] io_out[17] io_out[18] io_out[19] io_out[1] io_out[20] io_out[21]
+ io_out[22] io_out[23] io_out[24] io_out[25] io_out[26] io_out[27] io_out[28] io_out[29]
+ io_out[2] io_out[30] io_out[31] io_out[32] io_out[33] io_out[34] io_out[35] io_out[36]
+ io_out[37] io_out[3] io_out[4] io_out[5] io_out[6] io_out[7] io_out[8] io_out[9]
+ la_data_in[0] la_data_in[10] la_data_in[11] la_data_in[12] la_data_in[13] la_data_in[14]
+ la_data_in[15] la_data_in[16] la_data_in[17] la_data_in[18] la_data_in[19] la_data_in[1]
+ la_data_in[20] la_data_in[21] la_data_in[22] la_data_in[23] la_data_in[24] la_data_in[25]
+ la_data_in[26] la_data_in[27] la_data_in[28] la_data_in[29] la_data_in[2] la_data_in[30]
+ la_data_in[31] la_data_in[32] la_data_in[33] la_data_in[34] la_data_in[35] la_data_in[36]
+ la_data_in[37] la_data_in[38] la_data_in[39] la_data_in[3] la_data_in[40] la_data_in[41]
+ la_data_in[42] la_data_in[43] la_data_in[44] la_data_in[45] la_data_in[46] la_data_in[47]
+ la_data_in[48] la_data_in[49] la_data_in[4] la_data_in[50] la_data_in[51] la_data_in[52]
+ la_data_in[53] la_data_in[54] la_data_in[55] la_data_in[56] la_data_in[57] la_data_in[58]
+ la_data_in[59] la_data_in[5] la_data_in[60] la_data_in[61] la_data_in[62] la_data_in[63]
+ la_data_in[6] la_data_in[7] la_data_in[8] la_data_in[9] la_data_out[0] la_data_out[10]
+ la_data_out[11] la_data_out[12] la_data_out[13] la_data_out[14] la_data_out[15]
+ la_data_out[16] la_data_out[17] la_data_out[18] la_data_out[19] la_data_out[1] la_data_out[20]
+ la_data_out[21] la_data_out[22] la_data_out[23] la_data_out[24] la_data_out[25]
+ la_data_out[26] la_data_out[27] la_data_out[28] la_data_out[29] la_data_out[2] la_data_out[30]
+ la_data_out[31] la_data_out[32] la_data_out[33] la_data_out[34] la_data_out[35]
+ la_data_out[36] la_data_out[37] la_data_out[38] la_data_out[39] la_data_out[3] la_data_out[40]
+ la_data_out[41] la_data_out[42] la_data_out[43] la_data_out[44] la_data_out[45]
+ la_data_out[46] la_data_out[47] la_data_out[48] la_data_out[49] la_data_out[4] la_data_out[50]
+ la_data_out[51] la_data_out[52] la_data_out[53] la_data_out[54] la_data_out[55]
+ la_data_out[56] la_data_out[57] la_data_out[58] la_data_out[59] la_data_out[5] la_data_out[60]
+ la_data_out[61] la_data_out[62] la_data_out[63] la_data_out[6] la_data_out[7] la_data_out[8]
+ la_data_out[9] la_oenb[0] la_oenb[10] la_oenb[11] la_oenb[12] la_oenb[13] la_oenb[14]
+ la_oenb[15] la_oenb[16] la_oenb[17] la_oenb[18] la_oenb[19] la_oenb[1] la_oenb[20]
+ la_oenb[21] la_oenb[22] la_oenb[23] la_oenb[24] la_oenb[25] la_oenb[26] la_oenb[27]
+ la_oenb[28] la_oenb[29] la_oenb[2] la_oenb[30] la_oenb[31] la_oenb[32] la_oenb[33]
+ la_oenb[34] la_oenb[35] la_oenb[36] la_oenb[37] la_oenb[38] la_oenb[39] la_oenb[3]
+ la_oenb[40] la_oenb[41] la_oenb[42] la_oenb[43] la_oenb[44] la_oenb[45] la_oenb[46]
+ la_oenb[47] la_oenb[48] la_oenb[49] la_oenb[4] la_oenb[50] la_oenb[51] la_oenb[52]
+ la_oenb[53] la_oenb[54] la_oenb[55] la_oenb[56] la_oenb[57] la_oenb[58] la_oenb[59]
+ la_oenb[5] la_oenb[60] la_oenb[61] la_oenb[62] la_oenb[63] la_oenb[6] la_oenb[7]
+ la_oenb[8] la_oenb[9] user_clock2 user_irq[0] user_irq[1] user_irq[2] vdd vss wb_clk_i
+ wb_rst_i wbs_ack_o wbs_adr_i[0] wbs_adr_i[10] wbs_adr_i[11] wbs_adr_i[12] wbs_adr_i[13]
+ wbs_adr_i[14] wbs_adr_i[15] wbs_adr_i[16] wbs_adr_i[17] wbs_adr_i[18] wbs_adr_i[19]
+ wbs_adr_i[1] wbs_adr_i[20] wbs_adr_i[21] wbs_adr_i[22] wbs_adr_i[23] wbs_adr_i[24]
+ wbs_adr_i[25] wbs_adr_i[26] wbs_adr_i[27] wbs_adr_i[28] wbs_adr_i[29] wbs_adr_i[2]
+ wbs_adr_i[30] wbs_adr_i[31] wbs_adr_i[3] wbs_adr_i[4] wbs_adr_i[5] wbs_adr_i[6]
+ wbs_adr_i[7] wbs_adr_i[8] wbs_adr_i[9] wbs_cyc_i wbs_dat_i[0] wbs_dat_i[10] wbs_dat_i[11]
+ wbs_dat_i[12] wbs_dat_i[13] wbs_dat_i[14] wbs_dat_i[15] wbs_dat_i[16] wbs_dat_i[17]
+ wbs_dat_i[18] wbs_dat_i[19] wbs_dat_i[1] wbs_dat_i[20] wbs_dat_i[21] wbs_dat_i[22]
+ wbs_dat_i[23] wbs_dat_i[24] wbs_dat_i[25] wbs_dat_i[26] wbs_dat_i[27] wbs_dat_i[28]
+ wbs_dat_i[29] wbs_dat_i[2] wbs_dat_i[30] wbs_dat_i[31] wbs_dat_i[3] wbs_dat_i[4]
+ wbs_dat_i[5] wbs_dat_i[6] wbs_dat_i[7] wbs_dat_i[8] wbs_dat_i[9] wbs_dat_o[0] wbs_dat_o[10]
+ wbs_dat_o[11] wbs_dat_o[12] wbs_dat_o[13] wbs_dat_o[14] wbs_dat_o[15] wbs_dat_o[16]
+ wbs_dat_o[17] wbs_dat_o[18] wbs_dat_o[19] wbs_dat_o[1] wbs_dat_o[20] wbs_dat_o[21]
+ wbs_dat_o[22] wbs_dat_o[23] wbs_dat_o[24] wbs_dat_o[25] wbs_dat_o[26] wbs_dat_o[27]
+ wbs_dat_o[28] wbs_dat_o[29] wbs_dat_o[2] wbs_dat_o[30] wbs_dat_o[31] wbs_dat_o[3]
+ wbs_dat_o[4] wbs_dat_o[5] wbs_dat_o[6] wbs_dat_o[7] wbs_dat_o[8] wbs_dat_o[9] wbs_sel_i[0]
+ wbs_sel_i[1] wbs_sel_i[2] wbs_sel_i[3] wbs_stb_i wbs_we_i
XFILLER_67_520 vdd vss gf180mcu_fd_sc_mcu7t5v0__fill_2
XFILLER_95_851 vdd vss gf180mcu_fd_sc_mcu7t5v0__fill_1
XFILLER_95_862 vdd vss gf180mcu_fd_sc_mcu7t5v0__fill_1
XFILLER_95_873 vdd vss gf180mcu_fd_sc_mcu7t5v0__fillcap_32
XFILLER_55_715 vdd vss gf180mcu_fd_sc_mcu7t5v0__fillcap_4
XFILLER_39_277 vdd vss gf180mcu_fd_sc_mcu7t5v0__fill_2
XFILLER_27_428 vdd vss gf180mcu_fd_sc_mcu7t5v0__fill_1
XFILLER_27_439 vdd vss gf180mcu_fd_sc_mcu7t5v0__fill_1
XANTENNA__5968__A1 _2705_ vdd vss gf180mcu_fd_sc_mcu7t5v0__antenna
XANTENNA_fanout56_I net60 vdd vss gf180mcu_fd_sc_mcu7t5v0__antenna
XFILLER_82_534 vdd vss gf180mcu_fd_sc_mcu7t5v0__fill_1
XFILLER_36_940 vdd vss gf180mcu_fd_sc_mcu7t5v0__fill_2
XFILLER_82_545 vdd vss gf180mcu_fd_sc_mcu7t5v0__fill_1
X_6914_ _0074_ net112 mod.registers.r15\[3\] vdd vss gf180mcu_fd_sc_mcu7t5v0__dffq_1
XFILLER_63_770 vdd vss gf180mcu_fd_sc_mcu7t5v0__fill_2
XANTENNA__3443__A2 _3201_ vdd vss gf180mcu_fd_sc_mcu7t5v0__antenna
X_6845_ _0408_ net194 mod.instr_2\[6\] vdd vss gf180mcu_fd_sc_mcu7t5v0__dffq_1
XFILLER_35_494 vdd vss gf180mcu_fd_sc_mcu7t5v0__fill_2
XFILLER_51_943 vdd vss gf180mcu_fd_sc_mcu7t5v0__fill_2
XFILLER_62_280 vdd vss gf180mcu_fd_sc_mcu7t5v0__fill_2
XFILLER_23_645 vdd vss gf180mcu_fd_sc_mcu7t5v0__fill_2
XFILLER_50_431 vdd vss gf180mcu_fd_sc_mcu7t5v0__fill_2
XFILLER_62_291 vdd vss gf180mcu_fd_sc_mcu7t5v0__fillcap_4
XFILLER_161_1028 vdd vss gf180mcu_fd_sc_mcu7t5v0__fillcap_8
X_6776_ _0339_ net147 mod.pc0\[1\] vdd vss gf180mcu_fd_sc_mcu7t5v0__dffq_1
XFILLER_22_166 vdd vss gf180mcu_fd_sc_mcu7t5v0__fill_1
XFILLER_50_475 vdd vss gf180mcu_fd_sc_mcu7t5v0__fillcap_4
XANTENNA__6393__A1 _2104_ vdd vss gf180mcu_fd_sc_mcu7t5v0__antenna
X_3988_ mod.registers.r3\[6\] _0979_ _0973_ _0986_ vdd vss gf180mcu_fd_sc_mcu7t5v0__nand3_1
XFILLER_22_199 vdd vss gf180mcu_fd_sc_mcu7t5v0__fill_2
X_5727_ _2532_ _2551_ vdd vss gf180mcu_fd_sc_mcu7t5v0__clkbuf_1
XANTENNA__6160__I _2673_ vdd vss gf180mcu_fd_sc_mcu7t5v0__antenna
XFILLER_148_385 vdd vss gf180mcu_fd_sc_mcu7t5v0__fillcap_4
X_5658_ _2503_ _2500_ _2504_ _0245_ vdd vss gf180mcu_fd_sc_mcu7t5v0__oai21_1
XFILLER_108_227 vdd vss gf180mcu_fd_sc_mcu7t5v0__fillcap_4
XANTENNA__4156__B1 _0935_ vdd vss gf180mcu_fd_sc_mcu7t5v0__antenna
X_4609_ _0879_ _1581_ _1606_ _1607_ vdd vss gf180mcu_fd_sc_mcu7t5v0__nor3_1
XFILLER_123_208 vdd vss gf180mcu_fd_sc_mcu7t5v0__fill_2
X_5589_ _2107_ _2457_ vdd vss gf180mcu_fd_sc_mcu7t5v0__clkinv_1
XFILLER_117_783 vdd vss gf180mcu_fd_sc_mcu7t5v0__fill_1
XFILLER_2_516 vdd vss gf180mcu_fd_sc_mcu7t5v0__fill_2
XANTENNA__3903__B1 _0900_ vdd vss gf180mcu_fd_sc_mcu7t5v0__antenna
XFILLER_116_271 vdd vss gf180mcu_fd_sc_mcu7t5v0__fill_2
XFILLER_78_818 vdd vss gf180mcu_fd_sc_mcu7t5v0__fill_1
XFILLER_89_144 vdd vss gf180mcu_fd_sc_mcu7t5v0__fill_2
XFILLER_105_989 vdd vss gf180mcu_fd_sc_mcu7t5v0__fillcap_4
XANTENNA__5504__I _2403_ vdd vss gf180mcu_fd_sc_mcu7t5v0__antenna
XFILLER_78_829 vdd vss gf180mcu_fd_sc_mcu7t5v0__fillcap_4
XFILLER_77_59 vdd vss gf180mcu_fd_sc_mcu7t5v0__fillcap_8
XFILLER_58_531 vdd vss gf180mcu_fd_sc_mcu7t5v0__fill_1
XFILLER_19_918 vdd vss gf180mcu_fd_sc_mcu7t5v0__fillcap_4
XFILLER_86_862 vdd vss gf180mcu_fd_sc_mcu7t5v0__fill_2
XFILLER_100_650 vdd vss gf180mcu_fd_sc_mcu7t5v0__fill_2
XANTENNA__6629__CLK net113 vdd vss gf180mcu_fd_sc_mcu7t5v0__antenna
XFILLER_73_501 vdd vss gf180mcu_fd_sc_mcu7t5v0__fill_1
XFILLER_18_417 vdd vss gf180mcu_fd_sc_mcu7t5v0__fill_2
XFILLER_58_586 vdd vss gf180mcu_fd_sc_mcu7t5v0__fill_2
XFILLER_85_372 vdd vss gf180mcu_fd_sc_mcu7t5v0__fill_2
XFILLER_93_36 vdd vss gf180mcu_fd_sc_mcu7t5v0__fill_1
XTAP_2501 vdd vss gf180mcu_fd_sc_mcu7t5v0__filltie
XTAP_2512 vdd vss gf180mcu_fd_sc_mcu7t5v0__filltie
XANTENNA_output37_I net37 vdd vss gf180mcu_fd_sc_mcu7t5v0__antenna
XFILLER_73_556 vdd vss gf180mcu_fd_sc_mcu7t5v0__fillcap_8
XTAP_2523 vdd vss gf180mcu_fd_sc_mcu7t5v0__filltie
XTAP_2534 vdd vss gf180mcu_fd_sc_mcu7t5v0__filltie
XTAP_2545 vdd vss gf180mcu_fd_sc_mcu7t5v0__filltie
XTAP_1800 vdd vss gf180mcu_fd_sc_mcu7t5v0__filltie
XTAP_2556 vdd vss gf180mcu_fd_sc_mcu7t5v0__filltie
XTAP_1811 vdd vss gf180mcu_fd_sc_mcu7t5v0__filltie
XANTENNA__4631__A1 _1235_ vdd vss gf180mcu_fd_sc_mcu7t5v0__antenna
XANTENNA__3434__A2 _0429_ vdd vss gf180mcu_fd_sc_mcu7t5v0__antenna
XTAP_1822 vdd vss gf180mcu_fd_sc_mcu7t5v0__filltie
XTAP_2567 vdd vss gf180mcu_fd_sc_mcu7t5v0__filltie
XTAP_2578 vdd vss gf180mcu_fd_sc_mcu7t5v0__filltie
XFILLER_14_623 vdd vss gf180mcu_fd_sc_mcu7t5v0__fill_2
XTAP_1833 vdd vss gf180mcu_fd_sc_mcu7t5v0__filltie
XTAP_2589 vdd vss gf180mcu_fd_sc_mcu7t5v0__filltie
XTAP_1844 vdd vss gf180mcu_fd_sc_mcu7t5v0__filltie
XFILLER_53_280 vdd vss gf180mcu_fd_sc_mcu7t5v0__fill_1
XTAP_1855 vdd vss gf180mcu_fd_sc_mcu7t5v0__filltie
XANTENNA__3985__A3 mod.registers.r13\[6\] vdd vss gf180mcu_fd_sc_mcu7t5v0__antenna
XTAP_1866 vdd vss gf180mcu_fd_sc_mcu7t5v0__filltie
XFILLER_158_105 vdd vss gf180mcu_fd_sc_mcu7t5v0__fill_1
XFILLER_13_144 vdd vss gf180mcu_fd_sc_mcu7t5v0__fillcap_16
XFILLER_41_453 vdd vss gf180mcu_fd_sc_mcu7t5v0__fill_2
XTAP_1877 vdd vss gf180mcu_fd_sc_mcu7t5v0__filltie
XTAP_1888 vdd vss gf180mcu_fd_sc_mcu7t5v0__filltie
XTAP_1899 vdd vss gf180mcu_fd_sc_mcu7t5v0__filltie
XFILLER_41_475 vdd vss gf180mcu_fd_sc_mcu7t5v0__fillcap_4
XFILLER_9_137 vdd vss gf180mcu_fd_sc_mcu7t5v0__fillcap_4
XFILLER_42_51 vdd vss gf180mcu_fd_sc_mcu7t5v0__fill_2
XANTENNA__4934__A2 _1538_ vdd vss gf180mcu_fd_sc_mcu7t5v0__antenna
XFILLER_42_62 vdd vss gf180mcu_fd_sc_mcu7t5v0__fill_2
XANTENNA__3694__I mod.registers.r15\[2\] vdd vss gf180mcu_fd_sc_mcu7t5v0__antenna
XFILLER_127_503 vdd vss gf180mcu_fd_sc_mcu7t5v0__fill_2
XFILLER_6_811 vdd vss gf180mcu_fd_sc_mcu7t5v0__fillcap_4
XANTENNA__4147__B1 _0900_ vdd vss gf180mcu_fd_sc_mcu7t5v0__antenna
XFILLER_115_709 vdd vss gf180mcu_fd_sc_mcu7t5v0__fill_1
XFILLER_108_750 vdd vss gf180mcu_fd_sc_mcu7t5v0__fillcap_16
XFILLER_5_354 vdd vss gf180mcu_fd_sc_mcu7t5v0__fill_1
XFILLER_114_208 vdd vss gf180mcu_fd_sc_mcu7t5v0__fill_2
XANTENNA__4698__A1 _1205_ vdd vss gf180mcu_fd_sc_mcu7t5v0__antenna
XFILLER_123_731 vdd vss gf180mcu_fd_sc_mcu7t5v0__fillcap_8
XFILLER_122_230 vdd vss gf180mcu_fd_sc_mcu7t5v0__fill_1
XFILLER_122_241 vdd vss gf180mcu_fd_sc_mcu7t5v0__fillcap_4
XFILLER_123_786 vdd vss gf180mcu_fd_sc_mcu7t5v0__fill_2
XFILLER_122_263 vdd vss gf180mcu_fd_sc_mcu7t5v0__fill_2
XFILLER_68_339 vdd vss gf180mcu_fd_sc_mcu7t5v0__fillcap_8
XFILLER_110_436 vdd vss gf180mcu_fd_sc_mcu7t5v0__fill_2
XFILLER_77_851 vdd vss gf180mcu_fd_sc_mcu7t5v0__fill_1
XFILLER_67_70 vdd vss gf180mcu_fd_sc_mcu7t5v0__fill_1
XFILLER_37_704 vdd vss gf180mcu_fd_sc_mcu7t5v0__fill_2
XFILLER_76_350 vdd vss gf180mcu_fd_sc_mcu7t5v0__fill_1
XFILLER_92_810 vdd vss gf180mcu_fd_sc_mcu7t5v0__fill_2
XANTENNA__4870__A1 mod.pc\[0\] vdd vss gf180mcu_fd_sc_mcu7t5v0__antenna
XANTENNA__3673__A2 _0510_ vdd vss gf180mcu_fd_sc_mcu7t5v0__antenna
XFILLER_64_534 vdd vss gf180mcu_fd_sc_mcu7t5v0__fillcap_8
XFILLER_92_843 vdd vss gf180mcu_fd_sc_mcu7t5v0__fillcap_32
XFILLER_97_1036 vdd vss gf180mcu_fd_sc_mcu7t5v0__fillcap_4
XFILLER_36_258 vdd vss gf180mcu_fd_sc_mcu7t5v0__fill_2
XFILLER_64_567 vdd vss gf180mcu_fd_sc_mcu7t5v0__fill_1
XFILLER_36_269 vdd vss gf180mcu_fd_sc_mcu7t5v0__fill_2
XFILLER_52_729 vdd vss gf180mcu_fd_sc_mcu7t5v0__fill_2
X_4960_ _0768_ _1950_ _1952_ _1953_ vdd vss gf180mcu_fd_sc_mcu7t5v0__xor3_1
XANTENNA__4622__A1 _1273_ vdd vss gf180mcu_fd_sc_mcu7t5v0__antenna
XFILLER_51_206 vdd vss gf180mcu_fd_sc_mcu7t5v0__fill_2
XFILLER_45_792 vdd vss gf180mcu_fd_sc_mcu7t5v0__fill_2
X_3911_ _3168_ _0909_ vdd vss gf180mcu_fd_sc_mcu7t5v0__buf_1
X_4891_ _1884_ _1874_ _1887_ _1888_ vdd vss gf180mcu_fd_sc_mcu7t5v0__oai21_1
XANTENNA__3976__A3 mod.registers.r1\[6\] vdd vss gf180mcu_fd_sc_mcu7t5v0__antenna
XFILLER_32_453 vdd vss gf180mcu_fd_sc_mcu7t5v0__fill_1
X_6630_ _0196_ net89 mod.registers.r6\[4\] vdd vss gf180mcu_fd_sc_mcu7t5v0__dffq_1
XFILLER_60_773 vdd vss gf180mcu_fd_sc_mcu7t5v0__fill_2
X_3842_ _0836_ _0837_ _0838_ _0839_ _0840_ vdd vss gf180mcu_fd_sc_mcu7t5v0__and4_1
XANTENNA__6375__A1 _2999_ vdd vss gf180mcu_fd_sc_mcu7t5v0__antenna
XFILLER_34_1031 vdd vss gf180mcu_fd_sc_mcu7t5v0__fillcap_8
XFILLER_80_2 vdd vss gf180mcu_fd_sc_mcu7t5v0__fill_1
X_6561_ _0127_ net78 mod.registers.r1\[15\] vdd vss gf180mcu_fd_sc_mcu7t5v0__dffq_1
XANTENNA__4925__A2 _1918_ vdd vss gf180mcu_fd_sc_mcu7t5v0__antenna
X_3773_ mod.registers.r6\[5\] _0634_ _0491_ mod.registers.r14\[5\] _0771_ vdd vss
+ gf180mcu_fd_sc_mcu7t5v0__aoi22_1
X_5512_ mod.registers.r6\[2\] _2407_ _2410_ vdd vss gf180mcu_fd_sc_mcu7t5v0__nand2_1
X_6492_ _3090_ _0087_ vdd vss gf180mcu_fd_sc_mcu7t5v0__clkbuf_1
XFILLER_9_693 vdd vss gf180mcu_fd_sc_mcu7t5v0__fill_2
XFILLER_118_558 vdd vss gf180mcu_fd_sc_mcu7t5v0__fill_2
X_5443_ mod.registers.r5\[2\] _2350_ _2357_ vdd vss gf180mcu_fd_sc_mcu7t5v0__nand2_1
XFILLER_146_889 vdd vss gf180mcu_fd_sc_mcu7t5v0__fillcap_64
XANTENNA__4689__B2 _1203_ vdd vss gf180mcu_fd_sc_mcu7t5v0__antenna
XFILLER_160_314 vdd vss gf180mcu_fd_sc_mcu7t5v0__fillcap_4
X_5374_ mod.registers.r3\[12\] _2309_ _2310_ vdd vss gf180mcu_fd_sc_mcu7t5v0__nand2_1
X_4325_ _1321_ _1322_ _1323_ vdd vss gf180mcu_fd_sc_mcu7t5v0__and2_1
Xfanout105 net107 net105 vdd vss gf180mcu_fd_sc_mcu7t5v0__dlyc_1
XFILLER_87_615 vdd vss gf180mcu_fd_sc_mcu7t5v0__fillcap_8
Xfanout116 net119 net116 vdd vss gf180mcu_fd_sc_mcu7t5v0__dlyb_1
XFILLER_59_317 vdd vss gf180mcu_fd_sc_mcu7t5v0__fill_2
Xfanout127 net143 net127 vdd vss gf180mcu_fd_sc_mcu7t5v0__dlyb_1
XFILLER_86_103 vdd vss gf180mcu_fd_sc_mcu7t5v0__fill_2
Xfanout138 net139 net138 vdd vss gf180mcu_fd_sc_mcu7t5v0__dlyc_1
XFILLER_114_797 vdd vss gf180mcu_fd_sc_mcu7t5v0__fill_2
XFILLER_101_414 vdd vss gf180mcu_fd_sc_mcu7t5v0__fill_2
Xfanout149 net162 net149 vdd vss gf180mcu_fd_sc_mcu7t5v0__dlyc_1
X_4256_ _1214_ _1253_ _1195_ _1254_ vdd vss gf180mcu_fd_sc_mcu7t5v0__oai21_1
XFILLER_101_436 vdd vss gf180mcu_fd_sc_mcu7t5v0__fill_2
X_4187_ _1181_ _1182_ _1183_ _1184_ _1185_ vdd vss gf180mcu_fd_sc_mcu7t5v0__nand4_1
XANTENNA__4861__A1 _0874_ vdd vss gf180mcu_fd_sc_mcu7t5v0__antenna
XFILLER_67_372 vdd vss gf180mcu_fd_sc_mcu7t5v0__fill_2
XFILLER_55_534 vdd vss gf180mcu_fd_sc_mcu7t5v0__fill_2
XFILLER_83_854 vdd vss gf180mcu_fd_sc_mcu7t5v0__fill_1
XFILLER_27_247 vdd vss gf180mcu_fd_sc_mcu7t5v0__fill_2
XANTENNA__6921__CLK net91 vdd vss gf180mcu_fd_sc_mcu7t5v0__antenna
XFILLER_55_567 vdd vss gf180mcu_fd_sc_mcu7t5v0__fill_1
XFILLER_83_876 vdd vss gf180mcu_fd_sc_mcu7t5v0__fillcap_32
XANTENNA__6155__I mod.instr\[2\] vdd vss gf180mcu_fd_sc_mcu7t5v0__antenna
XFILLER_63_17 vdd vss gf180mcu_fd_sc_mcu7t5v0__fillcap_4
XTAP_1107 vdd vss gf180mcu_fd_sc_mcu7t5v0__filltie
XANTENNA__4613__A1 _1016_ vdd vss gf180mcu_fd_sc_mcu7t5v0__antenna
XTAP_1118 vdd vss gf180mcu_fd_sc_mcu7t5v0__filltie
XFILLER_70_526 vdd vss gf180mcu_fd_sc_mcu7t5v0__fill_2
XFILLER_82_386 vdd vss gf180mcu_fd_sc_mcu7t5v0__fill_1
XFILLER_36_781 vdd vss gf180mcu_fd_sc_mcu7t5v0__fill_2
XTAP_1129 vdd vss gf180mcu_fd_sc_mcu7t5v0__filltie
XFILLER_70_537 vdd vss gf180mcu_fd_sc_mcu7t5v0__fillcap_4
XFILLER_35_280 vdd vss gf180mcu_fd_sc_mcu7t5v0__fill_1
XFILLER_23_431 vdd vss gf180mcu_fd_sc_mcu7t5v0__fill_2
XFILLER_70_559 vdd vss gf180mcu_fd_sc_mcu7t5v0__fillcap_8
XFILLER_50_250 vdd vss gf180mcu_fd_sc_mcu7t5v0__fill_1
X_6828_ _0391_ net177 mod.instr\[11\] vdd vss gf180mcu_fd_sc_mcu7t5v0__dffq_1
XANTENNA__5169__A2 _1894_ vdd vss gf180mcu_fd_sc_mcu7t5v0__antenna
XANTENNA__6366__A1 _2999_ vdd vss gf180mcu_fd_sc_mcu7t5v0__antenna
XFILLER_50_261 vdd vss gf180mcu_fd_sc_mcu7t5v0__fill_1
XANTENNA__4831__C mod.instr_2\[5\] vdd vss gf180mcu_fd_sc_mcu7t5v0__antenna
XFILLER_50_272 vdd vss gf180mcu_fd_sc_mcu7t5v0__fill_2
X_6759_ _0325_ net100 mod.registers.r14\[5\] vdd vss gf180mcu_fd_sc_mcu7t5v0__dffq_1
XFILLER_109_514 vdd vss gf180mcu_fd_sc_mcu7t5v0__fill_1
XANTENNA__6118__A1 mod.pc_1\[5\] vdd vss gf180mcu_fd_sc_mcu7t5v0__antenna
XFILLER_164_653 vdd vss gf180mcu_fd_sc_mcu7t5v0__fill_2
XFILLER_163_141 vdd vss gf180mcu_fd_sc_mcu7t5v0__fill_1
XFILLER_152_815 vdd vss gf180mcu_fd_sc_mcu7t5v0__fill_1
XFILLER_124_517 vdd vss gf180mcu_fd_sc_mcu7t5v0__fill_2
XFILLER_124_539 vdd vss gf180mcu_fd_sc_mcu7t5v0__fill_1
XFILLER_3_847 vdd vss gf180mcu_fd_sc_mcu7t5v0__fillcap_4
XFILLER_132_550 vdd vss gf180mcu_fd_sc_mcu7t5v0__fill_2
XFILLER_105_786 vdd vss gf180mcu_fd_sc_mcu7t5v0__fillcap_4
XFILLER_132_583 vdd vss gf180mcu_fd_sc_mcu7t5v0__fillcap_8
XFILLER_120_734 vdd vss gf180mcu_fd_sc_mcu7t5v0__fillcap_8
XFILLER_78_648 vdd vss gf180mcu_fd_sc_mcu7t5v0__fill_1
XFILLER_104_285 vdd vss gf180mcu_fd_sc_mcu7t5v0__fill_2
XFILLER_59_851 vdd vss gf180mcu_fd_sc_mcu7t5v0__fill_1
XFILLER_19_704 vdd vss gf180mcu_fd_sc_mcu7t5v0__fillcap_4
XANTENNA__3655__A2 _0484_ vdd vss gf180mcu_fd_sc_mcu7t5v0__antenna