* NGSPICE file created from tiny_user_project.ext - technology: gf180mcuC

* Black-box entry subcircuit for gf180mcu_fd_sc_mcu7t5v0__fill_1 abstract view
.subckt gf180mcu_fd_sc_mcu7t5v0__fill_1 VDD VSS
.ends

* Black-box entry subcircuit for gf180mcu_fd_sc_mcu7t5v0__fillcap_64 abstract view
.subckt gf180mcu_fd_sc_mcu7t5v0__fillcap_64 VDD VSS
.ends

* Black-box entry subcircuit for gf180mcu_fd_sc_mcu7t5v0__antenna abstract view
.subckt gf180mcu_fd_sc_mcu7t5v0__antenna I VDD VSS
.ends

* Black-box entry subcircuit for gf180mcu_fd_sc_mcu7t5v0__fill_2 abstract view
.subckt gf180mcu_fd_sc_mcu7t5v0__fill_2 VDD VSS
.ends

* Black-box entry subcircuit for gf180mcu_fd_sc_mcu7t5v0__clkbuf_1 abstract view
.subckt gf180mcu_fd_sc_mcu7t5v0__clkbuf_1 I Z VDD VSS
.ends

* Black-box entry subcircuit for gf180mcu_fd_sc_mcu7t5v0__clkinv_1 abstract view
.subckt gf180mcu_fd_sc_mcu7t5v0__clkinv_1 I ZN VDD VSS
.ends

* Black-box entry subcircuit for gf180mcu_fd_sc_mcu7t5v0__fillcap_4 abstract view
.subckt gf180mcu_fd_sc_mcu7t5v0__fillcap_4 VDD VSS
.ends

* Black-box entry subcircuit for gf180mcu_fd_sc_mcu7t5v0__fillcap_16 abstract view
.subckt gf180mcu_fd_sc_mcu7t5v0__fillcap_16 VDD VSS
.ends

* Black-box entry subcircuit for gf180mcu_fd_sc_mcu7t5v0__filltie abstract view
.subckt gf180mcu_fd_sc_mcu7t5v0__filltie VDD VSS
.ends

* Black-box entry subcircuit for gf180mcu_fd_sc_mcu7t5v0__fillcap_8 abstract view
.subckt gf180mcu_fd_sc_mcu7t5v0__fillcap_8 VDD VSS
.ends

* Black-box entry subcircuit for gf180mcu_fd_sc_mcu7t5v0__nor2_1 abstract view
.subckt gf180mcu_fd_sc_mcu7t5v0__nor2_1 A1 A2 ZN VDD VSS
.ends

* Black-box entry subcircuit for gf180mcu_fd_sc_mcu7t5v0__nand2_1 abstract view
.subckt gf180mcu_fd_sc_mcu7t5v0__nand2_1 A1 A2 ZN VDD VSS
.ends

* Black-box entry subcircuit for gf180mcu_fd_sc_mcu7t5v0__buf_1 abstract view
.subckt gf180mcu_fd_sc_mcu7t5v0__buf_1 I Z VDD VSS
.ends

* Black-box entry subcircuit for gf180mcu_fd_sc_mcu7t5v0__dffq_1 abstract view
.subckt gf180mcu_fd_sc_mcu7t5v0__dffq_1 D CLK Q VDD VSS
.ends

* Black-box entry subcircuit for gf180mcu_fd_sc_mcu7t5v0__and3_1 abstract view
.subckt gf180mcu_fd_sc_mcu7t5v0__and3_1 A1 A2 A3 Z VDD VSS
.ends

* Black-box entry subcircuit for gf180mcu_fd_sc_mcu7t5v0__fillcap_32 abstract view
.subckt gf180mcu_fd_sc_mcu7t5v0__fillcap_32 VDD VSS
.ends

* Black-box entry subcircuit for gf180mcu_fd_sc_mcu7t5v0__and2_1 abstract view
.subckt gf180mcu_fd_sc_mcu7t5v0__and2_1 A1 A2 Z VDD VSS
.ends

* Black-box entry subcircuit for gf180mcu_fd_sc_mcu7t5v0__mux2_2 abstract view
.subckt gf180mcu_fd_sc_mcu7t5v0__mux2_2 I0 I1 S Z VDD VSS
.ends

* Black-box entry subcircuit for gf180mcu_fd_sc_mcu7t5v0__aoi22_1 abstract view
.subckt gf180mcu_fd_sc_mcu7t5v0__aoi22_1 A1 A2 B1 B2 ZN VDD VSS
.ends

* Black-box entry subcircuit for gf180mcu_fd_sc_mcu7t5v0__oai21_1 abstract view
.subckt gf180mcu_fd_sc_mcu7t5v0__oai21_1 A1 A2 B ZN VDD VSS
.ends

* Black-box entry subcircuit for gf180mcu_fd_sc_mcu7t5v0__aoi21_1 abstract view
.subckt gf180mcu_fd_sc_mcu7t5v0__aoi21_1 A1 A2 B ZN VDD VSS
.ends

* Black-box entry subcircuit for gf180mcu_fd_sc_mcu7t5v0__xor3_1 abstract view
.subckt gf180mcu_fd_sc_mcu7t5v0__xor3_1 A1 A2 A3 Z VDD VSS
.ends

* Black-box entry subcircuit for gf180mcu_fd_sc_mcu7t5v0__buf_2 abstract view
.subckt gf180mcu_fd_sc_mcu7t5v0__buf_2 I Z VDD VSS
.ends

* Black-box entry subcircuit for gf180mcu_fd_sc_mcu7t5v0__oai31_1 abstract view
.subckt gf180mcu_fd_sc_mcu7t5v0__oai31_1 A1 A2 A3 B ZN VDD VSS
.ends

* Black-box entry subcircuit for gf180mcu_fd_sc_mcu7t5v0__tiel abstract view
.subckt gf180mcu_fd_sc_mcu7t5v0__tiel ZN VDD VSS
.ends

* Black-box entry subcircuit for gf180mcu_fd_sc_mcu7t5v0__endcap abstract view
.subckt gf180mcu_fd_sc_mcu7t5v0__endcap VDD VSS
.ends

* Black-box entry subcircuit for gf180mcu_fd_sc_mcu7t5v0__aoi221_1 abstract view
.subckt gf180mcu_fd_sc_mcu7t5v0__aoi221_1 A1 A2 B1 B2 C ZN VDD VSS
.ends

* Black-box entry subcircuit for gf180mcu_fd_sc_mcu7t5v0__inv_1 abstract view
.subckt gf180mcu_fd_sc_mcu7t5v0__inv_1 I ZN VDD VSS
.ends

* Black-box entry subcircuit for gf180mcu_fd_sc_mcu7t5v0__xor2_1 abstract view
.subckt gf180mcu_fd_sc_mcu7t5v0__xor2_1 A1 A2 Z VDD VSS
.ends

* Black-box entry subcircuit for gf180mcu_fd_sc_mcu7t5v0__and2_2 abstract view
.subckt gf180mcu_fd_sc_mcu7t5v0__and2_2 A1 A2 Z VDD VSS
.ends

* Black-box entry subcircuit for gf180mcu_fd_sc_mcu7t5v0__clkbuf_3 abstract view
.subckt gf180mcu_fd_sc_mcu7t5v0__clkbuf_3 I Z VDD VSS
.ends

* Black-box entry subcircuit for gf180mcu_fd_sc_mcu7t5v0__oai22_1 abstract view
.subckt gf180mcu_fd_sc_mcu7t5v0__oai22_1 A1 A2 B1 B2 ZN VDD VSS
.ends

* Black-box entry subcircuit for gf180mcu_fd_sc_mcu7t5v0__oai21_2 abstract view
.subckt gf180mcu_fd_sc_mcu7t5v0__oai21_2 A1 A2 B ZN VDD VSS
.ends

* Black-box entry subcircuit for gf180mcu_fd_sc_mcu7t5v0__nand3_2 abstract view
.subckt gf180mcu_fd_sc_mcu7t5v0__nand3_2 A1 A2 A3 ZN VDD VSS
.ends

* Black-box entry subcircuit for gf180mcu_fd_sc_mcu7t5v0__aoi211_2 abstract view
.subckt gf180mcu_fd_sc_mcu7t5v0__aoi211_2 A1 A2 B C ZN VDD VSS
.ends

* Black-box entry subcircuit for gf180mcu_fd_sc_mcu7t5v0__nor3_1 abstract view
.subckt gf180mcu_fd_sc_mcu7t5v0__nor3_1 A1 A2 A3 ZN VDD VSS
.ends

* Black-box entry subcircuit for gf180mcu_fd_sc_mcu7t5v0__clkbuf_2 abstract view
.subckt gf180mcu_fd_sc_mcu7t5v0__clkbuf_2 I Z VDD VSS
.ends

* Black-box entry subcircuit for gf180mcu_fd_sc_mcu7t5v0__buf_3 abstract view
.subckt gf180mcu_fd_sc_mcu7t5v0__buf_3 I Z VDD VSS
.ends

* Black-box entry subcircuit for gf180mcu_fd_sc_mcu7t5v0__nor4_1 abstract view
.subckt gf180mcu_fd_sc_mcu7t5v0__nor4_1 A1 A2 A3 A4 ZN VDD VSS
.ends

* Black-box entry subcircuit for gf180mcu_fd_sc_mcu7t5v0__oai32_1 abstract view
.subckt gf180mcu_fd_sc_mcu7t5v0__oai32_1 A1 A2 A3 B1 B2 ZN VDD VSS
.ends

* Black-box entry subcircuit for gf180mcu_fd_sc_mcu7t5v0__aoi21_2 abstract view
.subckt gf180mcu_fd_sc_mcu7t5v0__aoi21_2 A1 A2 B ZN VDD VSS
.ends

* Black-box entry subcircuit for gf180mcu_fd_sc_mcu7t5v0__oai211_1 abstract view
.subckt gf180mcu_fd_sc_mcu7t5v0__oai211_1 A1 A2 B C ZN VDD VSS
.ends

* Black-box entry subcircuit for gf180mcu_fd_sc_mcu7t5v0__xnor2_1 abstract view
.subckt gf180mcu_fd_sc_mcu7t5v0__xnor2_1 A1 A2 ZN VDD VSS
.ends

* Black-box entry subcircuit for gf180mcu_fd_sc_mcu7t5v0__or2_1 abstract view
.subckt gf180mcu_fd_sc_mcu7t5v0__or2_1 A1 A2 Z VDD VSS
.ends

* Black-box entry subcircuit for gf180mcu_fd_sc_mcu7t5v0__mux4_1 abstract view
.subckt gf180mcu_fd_sc_mcu7t5v0__mux4_1 I0 I1 I2 I3 S0 S1 Z VDD VSS
.ends

* Black-box entry subcircuit for gf180mcu_fd_sc_mcu7t5v0__dlyb_1 abstract view
.subckt gf180mcu_fd_sc_mcu7t5v0__dlyb_1 I Z VDD VSS
.ends

* Black-box entry subcircuit for gf180mcu_fd_sc_mcu7t5v0__aoi222_2 abstract view
.subckt gf180mcu_fd_sc_mcu7t5v0__aoi222_2 A1 A2 B1 B2 C1 C2 ZN VDD VSS
.ends

* Black-box entry subcircuit for gf180mcu_fd_sc_mcu7t5v0__aoi211_1 abstract view
.subckt gf180mcu_fd_sc_mcu7t5v0__aoi211_1 A1 A2 B C ZN VDD VSS
.ends

* Black-box entry subcircuit for gf180mcu_fd_sc_mcu7t5v0__dlyc_1 abstract view
.subckt gf180mcu_fd_sc_mcu7t5v0__dlyc_1 I Z VDD VSS
.ends

* Black-box entry subcircuit for gf180mcu_fd_sc_mcu7t5v0__nand3_1 abstract view
.subckt gf180mcu_fd_sc_mcu7t5v0__nand3_1 A1 A2 A3 ZN VDD VSS
.ends

* Black-box entry subcircuit for gf180mcu_fd_sc_mcu7t5v0__nand4_1 abstract view
.subckt gf180mcu_fd_sc_mcu7t5v0__nand4_1 A1 A2 A3 A4 ZN VDD VSS
.ends

* Black-box entry subcircuit for gf180mcu_fd_sc_mcu7t5v0__nor2_2 abstract view
.subckt gf180mcu_fd_sc_mcu7t5v0__nor2_2 A1 A2 ZN VDD VSS
.ends

* Black-box entry subcircuit for gf180mcu_fd_sc_mcu7t5v0__aoi222_1 abstract view
.subckt gf180mcu_fd_sc_mcu7t5v0__aoi222_1 A1 A2 B1 B2 C1 C2 ZN VDD VSS
.ends

* Black-box entry subcircuit for gf180mcu_fd_sc_mcu7t5v0__nor3_2 abstract view
.subckt gf180mcu_fd_sc_mcu7t5v0__nor3_2 A1 A2 A3 ZN VDD VSS
.ends

* Black-box entry subcircuit for gf180mcu_fd_sc_mcu7t5v0__or3_1 abstract view
.subckt gf180mcu_fd_sc_mcu7t5v0__or3_1 A1 A2 A3 Z VDD VSS
.ends

* Black-box entry subcircuit for gf180mcu_fd_sc_mcu7t5v0__and4_1 abstract view
.subckt gf180mcu_fd_sc_mcu7t5v0__and4_1 A1 A2 A3 A4 Z VDD VSS
.ends

* Black-box entry subcircuit for gf180mcu_fd_sc_mcu7t5v0__aoi221_2 abstract view
.subckt gf180mcu_fd_sc_mcu7t5v0__aoi221_2 A1 A2 B1 B2 C ZN VDD VSS
.ends

* Black-box entry subcircuit for gf180mcu_fd_sc_mcu7t5v0__aoi222_4 abstract view
.subckt gf180mcu_fd_sc_mcu7t5v0__aoi222_4 A1 A2 B1 B2 C1 C2 ZN VDD VSS
.ends

* Black-box entry subcircuit for gf180mcu_fd_sc_mcu7t5v0__oai221_2 abstract view
.subckt gf180mcu_fd_sc_mcu7t5v0__oai221_2 A1 A2 B1 B2 C ZN VDD VSS
.ends

* Black-box entry subcircuit for gf180mcu_fd_sc_mcu7t5v0__oai31_2 abstract view
.subckt gf180mcu_fd_sc_mcu7t5v0__oai31_2 A1 A2 A3 B ZN VDD VSS
.ends

* Black-box entry subcircuit for gf180mcu_fd_sc_mcu7t5v0__oai32_2 abstract view
.subckt gf180mcu_fd_sc_mcu7t5v0__oai32_2 A1 A2 A3 B1 B2 ZN VDD VSS
.ends

* Black-box entry subcircuit for gf180mcu_fd_sc_mcu7t5v0__xnor3_1 abstract view
.subckt gf180mcu_fd_sc_mcu7t5v0__xnor3_1 A1 A2 A3 ZN VDD VSS
.ends

* Black-box entry subcircuit for gf180mcu_fd_sc_mcu7t5v0__clkinv_2 abstract view
.subckt gf180mcu_fd_sc_mcu7t5v0__clkinv_2 I ZN VDD VSS
.ends

* Black-box entry subcircuit for gf180mcu_fd_sc_mcu7t5v0__dlyd_1 abstract view
.subckt gf180mcu_fd_sc_mcu7t5v0__dlyd_1 I Z VDD VSS
.ends

* Black-box entry subcircuit for gf180mcu_fd_sc_mcu7t5v0__oai221_1 abstract view
.subckt gf180mcu_fd_sc_mcu7t5v0__oai221_1 A1 A2 B1 B2 C ZN VDD VSS
.ends

* Black-box entry subcircuit for gf180mcu_fd_sc_mcu7t5v0__aoi211_4 abstract view
.subckt gf180mcu_fd_sc_mcu7t5v0__aoi211_4 A1 A2 B C ZN VDD VSS
.ends

* Black-box entry subcircuit for gf180mcu_fd_sc_mcu7t5v0__aoi22_2 abstract view
.subckt gf180mcu_fd_sc_mcu7t5v0__aoi22_2 A1 A2 B1 B2 ZN VDD VSS
.ends

* Black-box entry subcircuit for gf180mcu_fd_sc_mcu7t5v0__nand2_2 abstract view
.subckt gf180mcu_fd_sc_mcu7t5v0__nand2_2 A1 A2 ZN VDD VSS
.ends

* Black-box entry subcircuit for gf180mcu_fd_sc_mcu7t5v0__oai22_2 abstract view
.subckt gf180mcu_fd_sc_mcu7t5v0__oai22_2 A1 A2 B1 B2 ZN VDD VSS
.ends

* Black-box entry subcircuit for gf180mcu_fd_sc_mcu7t5v0__nor4_2 abstract view
.subckt gf180mcu_fd_sc_mcu7t5v0__nor4_2 A1 A2 A3 A4 ZN VDD VSS
.ends

* Black-box entry subcircuit for gf180mcu_fd_sc_mcu7t5v0__aoi221_4 abstract view
.subckt gf180mcu_fd_sc_mcu7t5v0__aoi221_4 A1 A2 B1 B2 C ZN VDD VSS
.ends

* Black-box entry subcircuit for gf180mcu_fd_sc_mcu7t5v0__dffrnq_1 abstract view
.subckt gf180mcu_fd_sc_mcu7t5v0__dffrnq_1 D RN CLK Q VDD VSS
.ends

* Black-box entry subcircuit for gf180mcu_fd_sc_mcu7t5v0__nand4_2 abstract view
.subckt gf180mcu_fd_sc_mcu7t5v0__nand4_2 A1 A2 A3 A4 ZN VDD VSS
.ends

* Black-box entry subcircuit for gf180mcu_fd_sc_mcu7t5v0__dffsnq_1 abstract view
.subckt gf180mcu_fd_sc_mcu7t5v0__dffsnq_1 D SETN CLK Q VDD VSS
.ends

.subckt tiny_user_project io_in[0] io_in[10] io_in[11] io_in[12] io_in[13] io_in[14]
+ io_in[15] io_in[16] io_in[17] io_in[18] io_in[19] io_in[1] io_in[20] io_in[21] io_in[22]
+ io_in[23] io_in[24] io_in[25] io_in[26] io_in[27] io_in[28] io_in[29] io_in[2] io_in[30]
+ io_in[31] io_in[32] io_in[33] io_in[34] io_in[35] io_in[36] io_in[37] io_in[3] io_in[4]
+ io_in[5] io_in[6] io_in[7] io_in[8] io_in[9] io_oeb[0] io_oeb[10] io_oeb[11] io_oeb[12]
+ io_oeb[13] io_oeb[14] io_oeb[15] io_oeb[16] io_oeb[17] io_oeb[18] io_oeb[19] io_oeb[1]
+ io_oeb[20] io_oeb[21] io_oeb[22] io_oeb[23] io_oeb[24] io_oeb[25] io_oeb[26] io_oeb[27]
+ io_oeb[28] io_oeb[29] io_oeb[2] io_oeb[30] io_oeb[31] io_oeb[32] io_oeb[33] io_oeb[34]
+ io_oeb[35] io_oeb[36] io_oeb[37] io_oeb[3] io_oeb[4] io_oeb[5] io_oeb[6] io_oeb[7]
+ io_oeb[8] io_oeb[9] io_out[0] io_out[10] io_out[11] io_out[12] io_out[13] io_out[14]
+ io_out[15] io_out[16] io_out[17] io_out[18] io_out[19] io_out[1] io_out[20] io_out[21]
+ io_out[22] io_out[23] io_out[24] io_out[25] io_out[26] io_out[27] io_out[28] io_out[29]
+ io_out[2] io_out[30] io_out[31] io_out[32] io_out[33] io_out[34] io_out[35] io_out[36]
+ io_out[37] io_out[3] io_out[4] io_out[5] io_out[6] io_out[7] io_out[8] io_out[9]
+ la_data_in[0] la_data_in[10] la_data_in[11] la_data_in[12] la_data_in[13] la_data_in[14]
+ la_data_in[15] la_data_in[16] la_data_in[17] la_data_in[18] la_data_in[19] la_data_in[1]
+ la_data_in[20] la_data_in[21] la_data_in[22] la_data_in[23] la_data_in[24] la_data_in[25]
+ la_data_in[26] la_data_in[27] la_data_in[28] la_data_in[29] la_data_in[2] la_data_in[30]
+ la_data_in[31] la_data_in[32] la_data_in[33] la_data_in[34] la_data_in[35] la_data_in[36]
+ la_data_in[37] la_data_in[38] la_data_in[39] la_data_in[3] la_data_in[40] la_data_in[41]
+ la_data_in[42] la_data_in[43] la_data_in[44] la_data_in[45] la_data_in[46] la_data_in[47]
+ la_data_in[48] la_data_in[49] la_data_in[4] la_data_in[50] la_data_in[51] la_data_in[52]
+ la_data_in[53] la_data_in[54] la_data_in[55] la_data_in[56] la_data_in[57] la_data_in[58]
+ la_data_in[59] la_data_in[5] la_data_in[60] la_data_in[61] la_data_in[62] la_data_in[63]
+ la_data_in[6] la_data_in[7] la_data_in[8] la_data_in[9] la_data_out[0] la_data_out[10]
+ la_data_out[11] la_data_out[12] la_data_out[13] la_data_out[14] la_data_out[15]
+ la_data_out[16] la_data_out[17] la_data_out[18] la_data_out[19] la_data_out[1] la_data_out[20]
+ la_data_out[21] la_data_out[22] la_data_out[23] la_data_out[24] la_data_out[25]
+ la_data_out[26] la_data_out[27] la_data_out[28] la_data_out[29] la_data_out[2] la_data_out[30]
+ la_data_out[31] la_data_out[32] la_data_out[33] la_data_out[34] la_data_out[35]
+ la_data_out[36] la_data_out[37] la_data_out[38] la_data_out[39] la_data_out[3] la_data_out[40]
+ la_data_out[41] la_data_out[42] la_data_out[43] la_data_out[44] la_data_out[45]
+ la_data_out[46] la_data_out[47] la_data_out[48] la_data_out[49] la_data_out[4] la_data_out[50]
+ la_data_out[51] la_data_out[52] la_data_out[53] la_data_out[54] la_data_out[55]
+ la_data_out[56] la_data_out[57] la_data_out[58] la_data_out[59] la_data_out[5] la_data_out[60]
+ la_data_out[61] la_data_out[62] la_data_out[63] la_data_out[6] la_data_out[7] la_data_out[8]
+ la_data_out[9] la_oenb[0] la_oenb[10] la_oenb[11] la_oenb[12] la_oenb[13] la_oenb[14]
+ la_oenb[15] la_oenb[16] la_oenb[17] la_oenb[18] la_oenb[19] la_oenb[1] la_oenb[20]
+ la_oenb[21] la_oenb[22] la_oenb[23] la_oenb[24] la_oenb[25] la_oenb[26] la_oenb[27]
+ la_oenb[28] la_oenb[29] la_oenb[2] la_oenb[30] la_oenb[31] la_oenb[32] la_oenb[33]
+ la_oenb[34] la_oenb[35] la_oenb[36] la_oenb[37] la_oenb[38] la_oenb[39] la_oenb[3]
+ la_oenb[40] la_oenb[41] la_oenb[42] la_oenb[43] la_oenb[44] la_oenb[45] la_oenb[46]
+ la_oenb[47] la_oenb[48] la_oenb[49] la_oenb[4] la_oenb[50] la_oenb[51] la_oenb[52]
+ la_oenb[53] la_oenb[54] la_oenb[55] la_oenb[56] la_oenb[57] la_oenb[58] la_oenb[59]
+ la_oenb[5] la_oenb[60] la_oenb[61] la_oenb[62] la_oenb[63] la_oenb[6] la_oenb[7]
+ la_oenb[8] la_oenb[9] user_clock2 user_irq[0] user_irq[1] user_irq[2] vdd vss wb_clk_i
+ wb_rst_i wbs_ack_o wbs_adr_i[0] wbs_adr_i[10] wbs_adr_i[11] wbs_adr_i[12] wbs_adr_i[13]
+ wbs_adr_i[14] wbs_adr_i[15] wbs_adr_i[16] wbs_adr_i[17] wbs_adr_i[18] wbs_adr_i[19]
+ wbs_adr_i[1] wbs_adr_i[20] wbs_adr_i[21] wbs_adr_i[22] wbs_adr_i[23] wbs_adr_i[24]
+ wbs_adr_i[25] wbs_adr_i[26] wbs_adr_i[27] wbs_adr_i[28] wbs_adr_i[29] wbs_adr_i[2]
+ wbs_adr_i[30] wbs_adr_i[31] wbs_adr_i[3] wbs_adr_i[4] wbs_adr_i[5] wbs_adr_i[6]
+ wbs_adr_i[7] wbs_adr_i[8] wbs_adr_i[9] wbs_cyc_i wbs_dat_i[0] wbs_dat_i[10] wbs_dat_i[11]
+ wbs_dat_i[12] wbs_dat_i[13] wbs_dat_i[14] wbs_dat_i[15] wbs_dat_i[16] wbs_dat_i[17]
+ wbs_dat_i[18] wbs_dat_i[19] wbs_dat_i[1] wbs_dat_i[20] wbs_dat_i[21] wbs_dat_i[22]
+ wbs_dat_i[23] wbs_dat_i[24] wbs_dat_i[25] wbs_dat_i[26] wbs_dat_i[27] wbs_dat_i[28]
+ wbs_dat_i[29] wbs_dat_i[2] wbs_dat_i[30] wbs_dat_i[31] wbs_dat_i[3] wbs_dat_i[4]
+ wbs_dat_i[5] wbs_dat_i[6] wbs_dat_i[7] wbs_dat_i[8] wbs_dat_i[9] wbs_dat_o[0] wbs_dat_o[10]
+ wbs_dat_o[11] wbs_dat_o[12] wbs_dat_o[13] wbs_dat_o[14] wbs_dat_o[15] wbs_dat_o[16]
+ wbs_dat_o[17] wbs_dat_o[18] wbs_dat_o[19] wbs_dat_o[1] wbs_dat_o[20] wbs_dat_o[21]
+ wbs_dat_o[22] wbs_dat_o[23] wbs_dat_o[24] wbs_dat_o[25] wbs_dat_o[26] wbs_dat_o[27]
+ wbs_dat_o[28] wbs_dat_o[29] wbs_dat_o[2] wbs_dat_o[30] wbs_dat_o[31] wbs_dat_o[3]
+ wbs_dat_o[4] wbs_dat_o[5] wbs_dat_o[6] wbs_dat_o[7] wbs_dat_o[8] wbs_dat_o[9] wbs_sel_i[0]
+ wbs_sel_i[1] wbs_sel_i[2] wbs_sel_i[3] wbs_stb_i wbs_we_i
XFILLER_95_851 vdd vss gf180mcu_fd_sc_mcu7t5v0__fill_1
XFILLER_36_19 vdd vss gf180mcu_fd_sc_mcu7t5v0__fill_1
XFILLER_82_534 vdd vss gf180mcu_fd_sc_mcu7t5v0__fillcap_64
XANTENNA_fanout56_I net57 vdd vss gf180mcu_fd_sc_mcu7t5v0__antenna
XFILLER_54_214 vdd vss gf180mcu_fd_sc_mcu7t5v0__fill_2
XFILLER_27_428 vdd vss gf180mcu_fd_sc_mcu7t5v0__fillcap_64
X_2106_ _0808_ _0367_ vdd vss gf180mcu_fd_sc_mcu7t5v0__clkbuf_1
XFILLER_39_299 vdd vss gf180mcu_fd_sc_mcu7t5v0__fill_2
XFILLER_54_247 vdd vss gf180mcu_fd_sc_mcu7t5v0__fill_1
X_2037_ mod.instr\[2\] _0317_ vdd vss gf180mcu_fd_sc_mcu7t5v0__clkinv_1
XFILLER_23_634 vdd vss gf180mcu_fd_sc_mcu7t5v0__fillcap_4
XFILLER_50_431 vdd vss gf180mcu_fd_sc_mcu7t5v0__fill_2
XFILLER_161_1028 vdd vss gf180mcu_fd_sc_mcu7t5v0__fillcap_16
XFILLER_22_144 vdd vss gf180mcu_fd_sc_mcu7t5v0__fill_2
XFILLER_22_188 vdd vss gf180mcu_fd_sc_mcu7t5v0__fill_2
XANTENNA__1206__A1 _0547_ vdd vss gf180mcu_fd_sc_mcu7t5v0__antenna
XFILLER_148_385 vdd vss gf180mcu_fd_sc_mcu7t5v0__fillcap_4
XFILLER_123_208 vdd vss gf180mcu_fd_sc_mcu7t5v0__fillcap_4
XFILLER_117_783 vdd vss gf180mcu_fd_sc_mcu7t5v0__fillcap_64
XFILLER_2_527 vdd vss gf180mcu_fd_sc_mcu7t5v0__fillcap_4
XFILLER_105_989 vdd vss gf180mcu_fd_sc_mcu7t5v0__fillcap_4
XFILLER_89_144 vdd vss gf180mcu_fd_sc_mcu7t5v0__fill_1
XFILLER_78_818 vdd vss gf180mcu_fd_sc_mcu7t5v0__fillcap_64
XFILLER_77_26 vdd vss gf180mcu_fd_sc_mcu7t5v0__fill_2
XANTENNA__2182__A2 _0417_ vdd vss gf180mcu_fd_sc_mcu7t5v0__antenna
XFILLER_89_177 vdd vss gf180mcu_fd_sc_mcu7t5v0__fill_2
XFILLER_77_328 vdd vss gf180mcu_fd_sc_mcu7t5v0__fill_2
XFILLER_58_531 vdd vss gf180mcu_fd_sc_mcu7t5v0__fill_1
XFILLER_19_918 vdd vss gf180mcu_fd_sc_mcu7t5v0__fillcap_4
XTAP_2501 vdd vss gf180mcu_fd_sc_mcu7t5v0__filltie
XTAP_2545 vdd vss gf180mcu_fd_sc_mcu7t5v0__filltie
XTAP_2534 vdd vss gf180mcu_fd_sc_mcu7t5v0__filltie
XTAP_2512 vdd vss gf180mcu_fd_sc_mcu7t5v0__filltie
XTAP_2523 vdd vss gf180mcu_fd_sc_mcu7t5v0__filltie
XTAP_1800 vdd vss gf180mcu_fd_sc_mcu7t5v0__filltie
XFILLER_73_567 vdd vss gf180mcu_fd_sc_mcu7t5v0__fill_1
XFILLER_26_30 vdd vss gf180mcu_fd_sc_mcu7t5v0__fill_2
XFILLER_45_258 vdd vss gf180mcu_fd_sc_mcu7t5v0__fill_2
XTAP_2578 vdd vss gf180mcu_fd_sc_mcu7t5v0__filltie
XTAP_2567 vdd vss gf180mcu_fd_sc_mcu7t5v0__filltie
XTAP_2556 vdd vss gf180mcu_fd_sc_mcu7t5v0__filltie
XTAP_1833 vdd vss gf180mcu_fd_sc_mcu7t5v0__filltie
XTAP_1822 vdd vss gf180mcu_fd_sc_mcu7t5v0__filltie
XTAP_1811 vdd vss gf180mcu_fd_sc_mcu7t5v0__filltie
XFILLER_60_206 vdd vss gf180mcu_fd_sc_mcu7t5v0__fill_2
XFILLER_26_74 vdd vss gf180mcu_fd_sc_mcu7t5v0__fillcap_4
XTAP_2589 vdd vss gf180mcu_fd_sc_mcu7t5v0__filltie
XTAP_1866 vdd vss gf180mcu_fd_sc_mcu7t5v0__filltie
XTAP_1855 vdd vss gf180mcu_fd_sc_mcu7t5v0__filltie
XTAP_1844 vdd vss gf180mcu_fd_sc_mcu7t5v0__filltie
XFILLER_53_291 vdd vss gf180mcu_fd_sc_mcu7t5v0__fill_2
XANTENNA__1445__A1 _0788_ vdd vss gf180mcu_fd_sc_mcu7t5v0__antenna
XFILLER_26_85 vdd vss gf180mcu_fd_sc_mcu7t5v0__fill_2
XANTENNA__1479__I _0823_ vdd vss gf180mcu_fd_sc_mcu7t5v0__antenna
XFILLER_41_420 vdd vss gf180mcu_fd_sc_mcu7t5v0__fillcap_4
XFILLER_158_105 vdd vss gf180mcu_fd_sc_mcu7t5v0__fill_1
XTAP_1899 vdd vss gf180mcu_fd_sc_mcu7t5v0__filltie
XTAP_1888 vdd vss gf180mcu_fd_sc_mcu7t5v0__filltie
XTAP_1877 vdd vss gf180mcu_fd_sc_mcu7t5v0__filltie
XFILLER_13_166 vdd vss gf180mcu_fd_sc_mcu7t5v0__fillcap_16
XFILLER_13_144 vdd vss gf180mcu_fd_sc_mcu7t5v0__fillcap_16
XFILLER_9_137 vdd vss gf180mcu_fd_sc_mcu7t5v0__fillcap_4
XFILLER_6_811 vdd vss gf180mcu_fd_sc_mcu7t5v0__fillcap_4
XANTENNA__1748__A2 _1088_ vdd vss gf180mcu_fd_sc_mcu7t5v0__antenna
XFILLER_115_709 vdd vss gf180mcu_fd_sc_mcu7t5v0__fill_1
XFILLER_5_354 vdd vss gf180mcu_fd_sc_mcu7t5v0__fill_1
XANTENNA__2103__I _0364_ vdd vss gf180mcu_fd_sc_mcu7t5v0__antenna
XFILLER_68_328 vdd vss gf180mcu_fd_sc_mcu7t5v0__fill_2
XANTENNA__1942__I _0242_ vdd vss gf180mcu_fd_sc_mcu7t5v0__antenna
XFILLER_77_851 vdd vss gf180mcu_fd_sc_mcu7t5v0__fill_1
X_1270_ _0614_ _0615_ vdd vss gf180mcu_fd_sc_mcu7t5v0__clkbuf_1
XFILLER_67_70 vdd vss gf180mcu_fd_sc_mcu7t5v0__fill_1
XFILLER_97_1036 vdd vss gf180mcu_fd_sc_mcu7t5v0__fillcap_4
XFILLER_64_534 vdd vss gf180mcu_fd_sc_mcu7t5v0__fillcap_64
XFILLER_60_740 vdd vss gf180mcu_fd_sc_mcu7t5v0__fillcap_4
XFILLER_80_2 vdd vss gf180mcu_fd_sc_mcu7t5v0__fill_1
XFILLER_34_1031 vdd vss gf180mcu_fd_sc_mcu7t5v0__fillcap_8
XANTENNA__1739__A2 _0602_ vdd vss gf180mcu_fd_sc_mcu7t5v0__antenna
XFILLER_146_889 vdd vss gf180mcu_fd_sc_mcu7t5v0__fillcap_64
XFILLER_105_208 vdd vss gf180mcu_fd_sc_mcu7t5v0__fillcap_4
XFILLER_160_314 vdd vss gf180mcu_fd_sc_mcu7t5v0__fillcap_4
X_1606_ _0942_ _0949_ _0950_ vdd vss gf180mcu_fd_sc_mcu7t5v0__nor2_1
XANTENNA__1852__I _1165_ vdd vss gf180mcu_fd_sc_mcu7t5v0__antenna
X_1537_ _0878_ _0881_ _0882_ vdd vss gf180mcu_fd_sc_mcu7t5v0__nand2_1
XFILLER_59_328 vdd vss gf180mcu_fd_sc_mcu7t5v0__fillcap_4
XFILLER_101_425 vdd vss gf180mcu_fd_sc_mcu7t5v0__fill_1
X_1468_ _0688_ _0813_ vdd vss gf180mcu_fd_sc_mcu7t5v0__buf_1
XFILLER_86_158 vdd vss gf180mcu_fd_sc_mcu7t5v0__fill_2
X_1399_ _0683_ _0744_ vdd vss gf180mcu_fd_sc_mcu7t5v0__clkbuf_1
XFILLER_47_29 vdd vss gf180mcu_fd_sc_mcu7t5v0__fill_2
XFILLER_27_203 vdd vss gf180mcu_fd_sc_mcu7t5v0__fill_1
XFILLER_83_854 vdd vss gf180mcu_fd_sc_mcu7t5v0__fillcap_64
XFILLER_55_567 vdd vss gf180mcu_fd_sc_mcu7t5v0__fill_1
XTAP_1129 vdd vss gf180mcu_fd_sc_mcu7t5v0__filltie
XTAP_1107 vdd vss gf180mcu_fd_sc_mcu7t5v0__filltie
XTAP_1118 vdd vss gf180mcu_fd_sc_mcu7t5v0__filltie
XFILLER_50_250 vdd vss gf180mcu_fd_sc_mcu7t5v0__fill_1
XFILLER_50_261 vdd vss gf180mcu_fd_sc_mcu7t5v0__fill_1
XFILLER_50_283 vdd vss gf180mcu_fd_sc_mcu7t5v0__fillcap_4
XFILLER_163_141 vdd vss gf180mcu_fd_sc_mcu7t5v0__fill_1
XFILLER_152_815 vdd vss gf180mcu_fd_sc_mcu7t5v0__fill_1
XFILLER_3_847 vdd vss gf180mcu_fd_sc_mcu7t5v0__fillcap_4
XANTENNA__2155__A2 _0244_ vdd vss gf180mcu_fd_sc_mcu7t5v0__antenna
XFILLER_59_851 vdd vss gf180mcu_fd_sc_mcu7t5v0__fill_1
XFILLER_18_203 vdd vss gf180mcu_fd_sc_mcu7t5v0__fill_2
XFILLER_46_534 vdd vss gf180mcu_fd_sc_mcu7t5v0__fillcap_64
XTAP_2320 vdd vss gf180mcu_fd_sc_mcu7t5v0__filltie
XFILLER_73_353 vdd vss gf180mcu_fd_sc_mcu7t5v0__fill_2
XFILLER_18_236 vdd vss gf180mcu_fd_sc_mcu7t5v0__fill_2
XFILLER_37_73 vdd vss gf180mcu_fd_sc_mcu7t5v0__fill_1
XTAP_2353 vdd vss gf180mcu_fd_sc_mcu7t5v0__filltie
XTAP_2342 vdd vss gf180mcu_fd_sc_mcu7t5v0__filltie
XTAP_2331 vdd vss gf180mcu_fd_sc_mcu7t5v0__filltie
XFILLER_73_375 vdd vss gf180mcu_fd_sc_mcu7t5v0__fill_2
XFILLER_73_364 vdd vss gf180mcu_fd_sc_mcu7t5v0__fill_2
XTAP_2386 vdd vss gf180mcu_fd_sc_mcu7t5v0__filltie
XTAP_2375 vdd vss gf180mcu_fd_sc_mcu7t5v0__filltie
XTAP_2364 vdd vss gf180mcu_fd_sc_mcu7t5v0__filltie
XTAP_1641 vdd vss gf180mcu_fd_sc_mcu7t5v0__filltie
XTAP_1630 vdd vss gf180mcu_fd_sc_mcu7t5v0__filltie
XFILLER_42_740 vdd vss gf180mcu_fd_sc_mcu7t5v0__fillcap_4
XFILLER_159_425 vdd vss gf180mcu_fd_sc_mcu7t5v0__fill_1
XTAP_2397 vdd vss gf180mcu_fd_sc_mcu7t5v0__filltie
XTAP_1685 vdd vss gf180mcu_fd_sc_mcu7t5v0__filltie
XTAP_1674 vdd vss gf180mcu_fd_sc_mcu7t5v0__filltie
XTAP_1663 vdd vss gf180mcu_fd_sc_mcu7t5v0__filltie
XTAP_1652 vdd vss gf180mcu_fd_sc_mcu7t5v0__filltie
XANTENNA__2091__A1 _0539_ vdd vss gf180mcu_fd_sc_mcu7t5v0__antenna
XTAP_1696 vdd vss gf180mcu_fd_sc_mcu7t5v0__filltie
XFILLER_30_957 vdd vss gf180mcu_fd_sc_mcu7t5v0__fill_1
XFILLER_41_283 vdd vss gf180mcu_fd_sc_mcu7t5v0__fill_1
XFILLER_146_108 vdd vss gf180mcu_fd_sc_mcu7t5v0__fillcap_64
XFILLER_128_889 vdd vss gf180mcu_fd_sc_mcu7t5v0__fillcap_64
XFILLER_142_314 vdd vss gf180mcu_fd_sc_mcu7t5v0__fillcap_4
X_2440_ _0084_ net23 mod.valid_out3 vdd vss gf180mcu_fd_sc_mcu7t5v0__dffq_1
XFILLER_111_712 vdd vss gf180mcu_fd_sc_mcu7t5v0__fillcap_64
X_2371_ _0018_ net69 mod.registers.r6\[7\] vdd vss gf180mcu_fd_sc_mcu7t5v0__dffq_1
XFILLER_68_103 vdd vss gf180mcu_fd_sc_mcu7t5v0__fill_2
XFILLER_64_1024 vdd vss gf180mcu_fd_sc_mcu7t5v0__fillcap_4
X_1322_ _0666_ _0667_ vdd vss gf180mcu_fd_sc_mcu7t5v0__clkbuf_1
XFILLER_96_456 vdd vss gf180mcu_fd_sc_mcu7t5v0__fillcap_4
XFILLER_83_106 vdd vss gf180mcu_fd_sc_mcu7t5v0__fill_2
X_1253_ _0582_ _0590_ _0597_ _0598_ vdd vss gf180mcu_fd_sc_mcu7t5v0__and3_1
XFILLER_49_372 vdd vss gf180mcu_fd_sc_mcu7t5v0__fill_2
XFILLER_65_854 vdd vss gf180mcu_fd_sc_mcu7t5v0__fillcap_64
XFILLER_64_342 vdd vss gf180mcu_fd_sc_mcu7t5v0__fill_2
XFILLER_37_567 vdd vss gf180mcu_fd_sc_mcu7t5v0__fill_1
X_1184_ _0529_ _0530_ _0531_ vdd vss gf180mcu_fd_sc_mcu7t5v0__nand2_1
XFILLER_49_394 vdd vss gf180mcu_fd_sc_mcu7t5v0__fill_2
XFILLER_92_673 vdd vss gf180mcu_fd_sc_mcu7t5v0__fill_1
XFILLER_64_397 vdd vss gf180mcu_fd_sc_mcu7t5v0__fill_2
XANTENNA__1409__A1 _0751_ vdd vss gf180mcu_fd_sc_mcu7t5v0__antenna
XANTENNA__2008__I _0295_ vdd vss gf180mcu_fd_sc_mcu7t5v0__antenna
XFILLER_32_250 vdd vss gf180mcu_fd_sc_mcu7t5v0__fill_1
XFILLER_71_1028 vdd vss gf180mcu_fd_sc_mcu7t5v0__fillcap_8
XFILLER_32_272 vdd vss gf180mcu_fd_sc_mcu7t5v0__fill_2
XFILLER_20_456 vdd vss gf180mcu_fd_sc_mcu7t5v0__fillcap_4
XFILLER_145_141 vdd vss gf180mcu_fd_sc_mcu7t5v0__fill_1
XFILLER_134_815 vdd vss gf180mcu_fd_sc_mcu7t5v0__fill_1
XFILLER_161_634 vdd vss gf180mcu_fd_sc_mcu7t5v0__fillcap_4
XFILLER_59_103 vdd vss gf180mcu_fd_sc_mcu7t5v0__fill_2
XFILLER_99_283 vdd vss gf180mcu_fd_sc_mcu7t5v0__fill_1
XFILLER_88_957 vdd vss gf180mcu_fd_sc_mcu7t5v0__fill_1
XANTENNA__1896__A1 _1051_ vdd vss gf180mcu_fd_sc_mcu7t5v0__antenna
XFILLER_0_839 vdd vss gf180mcu_fd_sc_mcu7t5v0__fill_1
XFILLER_114_23 vdd vss gf180mcu_fd_sc_mcu7t5v0__fillcap_8
XFILLER_74_117 vdd vss gf180mcu_fd_sc_mcu7t5v0__fillcap_4
XFILLER_28_534 vdd vss gf180mcu_fd_sc_mcu7t5v0__fillcap_64
XFILLER_24_740 vdd vss gf180mcu_fd_sc_mcu7t5v0__fillcap_4
XFILLER_90_37 vdd vss gf180mcu_fd_sc_mcu7t5v0__fillcap_64
XFILLER_70_378 vdd vss gf180mcu_fd_sc_mcu7t5v0__fill_2
XFILLER_157_918 vdd vss gf180mcu_fd_sc_mcu7t5v0__fillcap_4
XFILLER_51_570 vdd vss gf180mcu_fd_sc_mcu7t5v0__fillcap_64
XFILLER_128_108 vdd vss gf180mcu_fd_sc_mcu7t5v0__fillcap_64
XANTENNA__1281__C1 _0588_ vdd vss gf180mcu_fd_sc_mcu7t5v0__antenna
XFILLER_12_957 vdd vss gf180mcu_fd_sc_mcu7t5v0__fill_1
XFILLER_128_2 vdd vss gf180mcu_fd_sc_mcu7t5v0__fillcap_32
XFILLER_164_461 vdd vss gf180mcu_fd_sc_mcu7t5v0__fill_2
XFILLER_124_314 vdd vss gf180mcu_fd_sc_mcu7t5v0__fillcap_4
XFILLER_151_144 vdd vss gf180mcu_fd_sc_mcu7t5v0__fillcap_64
XANTENNA__2128__A2 _0376_ vdd vss gf180mcu_fd_sc_mcu7t5v0__antenna
XFILLER_140_818 vdd vss gf180mcu_fd_sc_mcu7t5v0__fillcap_64
XANTENNA__1492__I _0700_ vdd vss gf180mcu_fd_sc_mcu7t5v0__antenna
XFILLER_120_531 vdd vss gf180mcu_fd_sc_mcu7t5v0__fill_1
XFILLER_2_176 vdd vss gf180mcu_fd_sc_mcu7t5v0__fill_1
XFILLER_78_456 vdd vss gf180mcu_fd_sc_mcu7t5v0__fillcap_4
XFILLER_48_50 vdd vss gf180mcu_fd_sc_mcu7t5v0__fill_2
XFILLER_111_1044 vdd vss gf180mcu_fd_sc_mcu7t5v0__fill_1
XANTENNA__1441__B _0785_ vdd vss gf180mcu_fd_sc_mcu7t5v0__antenna
XFILLER_47_854 vdd vss gf180mcu_fd_sc_mcu7t5v0__fillcap_64
XANTENNA__2300__A2 _0489_ vdd vss gf180mcu_fd_sc_mcu7t5v0__antenna
XFILLER_74_673 vdd vss gf180mcu_fd_sc_mcu7t5v0__fill_1
XFILLER_19_567 vdd vss gf180mcu_fd_sc_mcu7t5v0__fill_1
XFILLER_46_364 vdd vss gf180mcu_fd_sc_mcu7t5v0__fill_2
XTAP_2161 vdd vss gf180mcu_fd_sc_mcu7t5v0__filltie
XTAP_2150 vdd vss gf180mcu_fd_sc_mcu7t5v0__filltie
XFILLER_94_1039 vdd vss gf180mcu_fd_sc_mcu7t5v0__fill_1
XFILLER_94_1028 vdd vss gf180mcu_fd_sc_mcu7t5v0__fill_1
XANTENNA__2418__CLK net30 vdd vss gf180mcu_fd_sc_mcu7t5v0__antenna
XTAP_2194 vdd vss gf180mcu_fd_sc_mcu7t5v0__filltie
XTAP_2183 vdd vss gf180mcu_fd_sc_mcu7t5v0__filltie
XTAP_2172 vdd vss gf180mcu_fd_sc_mcu7t5v0__filltie
XTAP_1460 vdd vss gf180mcu_fd_sc_mcu7t5v0__filltie
XTAP_1493 vdd vss gf180mcu_fd_sc_mcu7t5v0__filltie
XTAP_1482 vdd vss gf180mcu_fd_sc_mcu7t5v0__filltie
XTAP_1471 vdd vss gf180mcu_fd_sc_mcu7t5v0__filltie
XFILLER_14_250 vdd vss gf180mcu_fd_sc_mcu7t5v0__fillcap_64
XANTENNA__2064__A1 _0335_ vdd vss gf180mcu_fd_sc_mcu7t5v0__antenna
X_1940_ net7 _0823_ _0241_ vdd vss gf180mcu_fd_sc_mcu7t5v0__and2_1
XANTENNA__1272__C1 _0616_ vdd vss gf180mcu_fd_sc_mcu7t5v0__antenna
X_1871_ _0893_ _0892_ _1170_ _0190_ vdd vss gf180mcu_fd_sc_mcu7t5v0__mux2_2
XFILLER_9_66 vdd vss gf180mcu_fd_sc_mcu7t5v0__fillcap_4
XANTENNA__1811__A1 _0530_ vdd vss gf180mcu_fd_sc_mcu7t5v0__antenna
XFILLER_147_428 vdd vss gf180mcu_fd_sc_mcu7t5v0__fillcap_64
XFILLER_80_70 vdd vss gf180mcu_fd_sc_mcu7t5v0__fill_2
XFILLER_127_141 vdd vss gf180mcu_fd_sc_mcu7t5v0__fill_1
XFILLER_116_815 vdd vss gf180mcu_fd_sc_mcu7t5v0__fill_1
XFILLER_143_634 vdd vss gf180mcu_fd_sc_mcu7t5v0__fillcap_4
XFILLER_6_460 vdd vss gf180mcu_fd_sc_mcu7t5v0__fill_1
X_2423_ _0067_ net29 mod.instr_2\[5\] vdd vss gf180mcu_fd_sc_mcu7t5v0__dffq_1
XFILLER_43_2 vdd vss gf180mcu_fd_sc_mcu7t5v0__fill_1
X_2354_ mod.registers.r5\[1\] _0166_ _0522_ vdd vss gf180mcu_fd_sc_mcu7t5v0__nand2_1
XFILLER_97_776 vdd vss gf180mcu_fd_sc_mcu7t5v0__fillcap_4
X_1305_ mod.registers.r3\[2\] _0616_ _0595_ mod.registers.r4\[2\] _0650_ vdd vss gf180mcu_fd_sc_mcu7t5v0__aoi22_1
X_2285_ _0165_ _0474_ _0481_ _0130_ vdd vss gf180mcu_fd_sc_mcu7t5v0__oai21_1
X_1236_ _0580_ _0581_ vdd vss gf180mcu_fd_sc_mcu7t5v0__clkbuf_1
XFILLER_37_331 vdd vss gf180mcu_fd_sc_mcu7t5v0__fill_1
XFILLER_37_342 vdd vss gf180mcu_fd_sc_mcu7t5v0__fill_2
XFILLER_93_993 vdd vss gf180mcu_fd_sc_mcu7t5v0__fill_1
XFILLER_64_161 vdd vss gf180mcu_fd_sc_mcu7t5v0__fill_2
XFILLER_37_364 vdd vss gf180mcu_fd_sc_mcu7t5v0__fill_2
XFILLER_80_676 vdd vss gf180mcu_fd_sc_mcu7t5v0__fillcap_64
XFILLER_52_389 vdd vss gf180mcu_fd_sc_mcu7t5v0__fill_1
XFILLER_33_570 vdd vss gf180mcu_fd_sc_mcu7t5v0__fillcap_64
XFILLER_139_918 vdd vss gf180mcu_fd_sc_mcu7t5v0__fillcap_4