*SPEF "ieee 1481-1999"
*DESIGN "user_project_wrapper"
*DATE "11:11:11 Fri 11 11, 1111"
*VENDOR "OpenRCX"
*PROGRAM "Parallel Extraction"
*VERSION "1.0"
*DESIGN_FLOW "NAME_SCOPE LOCAL" "PIN_CAP NONE"
*DIVIDER /
*DELIMITER :
*BUS_DELIMITER []
*T_UNIT 1 NS
*C_UNIT 1 PF
*R_UNIT 1 OHM
*L_UNIT 1 HENRY

*NAME_MAP
*1 io_in[0]
*2 io_in[10]
*3 io_in[11]
*4 io_in[12]
*5 io_in[13]
*6 io_in[14]
*7 io_in[15]
*8 io_in[16]
*9 io_in[17]
*10 io_in[18]
*11 io_in[19]
*12 io_in[1]
*13 io_in[20]
*14 io_in[21]
*15 io_in[22]
*16 io_in[23]
*17 io_in[24]
*18 io_in[25]
*19 io_in[26]
*20 io_in[27]
*21 io_in[28]
*22 io_in[29]
*23 io_in[2]
*24 io_in[30]
*25 io_in[31]
*26 io_in[32]
*27 io_in[33]
*28 io_in[34]
*29 io_in[35]
*30 io_in[36]
*31 io_in[37]
*32 io_in[3]
*33 io_in[4]
*34 io_in[5]
*35 io_in[6]
*36 io_in[7]
*37 io_in[8]
*38 io_in[9]
*39 io_oeb[0]
*40 io_oeb[10]
*41 io_oeb[11]
*42 io_oeb[12]
*43 io_oeb[13]
*44 io_oeb[14]
*45 io_oeb[15]
*46 io_oeb[16]
*47 io_oeb[17]
*48 io_oeb[18]
*49 io_oeb[19]
*50 io_oeb[1]
*51 io_oeb[20]
*52 io_oeb[21]
*53 io_oeb[22]
*54 io_oeb[23]
*55 io_oeb[24]
*56 io_oeb[25]
*57 io_oeb[26]
*58 io_oeb[27]
*59 io_oeb[28]
*60 io_oeb[29]
*61 io_oeb[2]
*62 io_oeb[30]
*63 io_oeb[31]
*64 io_oeb[32]
*65 io_oeb[33]
*66 io_oeb[34]
*67 io_oeb[35]
*68 io_oeb[36]
*69 io_oeb[37]
*70 io_oeb[3]
*71 io_oeb[4]
*72 io_oeb[5]
*73 io_oeb[6]
*74 io_oeb[7]
*75 io_oeb[8]
*76 io_oeb[9]
*77 io_out[0]
*78 io_out[10]
*79 io_out[11]
*80 io_out[12]
*81 io_out[13]
*82 io_out[14]
*83 io_out[15]
*84 io_out[16]
*85 io_out[17]
*86 io_out[18]
*87 io_out[19]
*88 io_out[1]
*89 io_out[20]
*90 io_out[21]
*91 io_out[22]
*92 io_out[23]
*93 io_out[24]
*94 io_out[25]
*95 io_out[26]
*96 io_out[27]
*97 io_out[28]
*98 io_out[29]
*99 io_out[2]
*100 io_out[30]
*101 io_out[31]
*102 io_out[32]
*103 io_out[33]
*104 io_out[34]
*105 io_out[35]
*106 io_out[36]
*107 io_out[37]
*108 io_out[3]
*109 io_out[4]
*110 io_out[5]
*111 io_out[6]
*112 io_out[7]
*113 io_out[8]
*114 io_out[9]
*115 la_data_in[0]
*116 la_data_in[10]
*117 la_data_in[11]
*118 la_data_in[12]
*119 la_data_in[13]
*120 la_data_in[14]
*121 la_data_in[15]
*122 la_data_in[16]
*123 la_data_in[17]
*124 la_data_in[18]
*125 la_data_in[19]
*126 la_data_in[1]
*127 la_data_in[20]
*128 la_data_in[21]
*129 la_data_in[22]
*130 la_data_in[23]
*131 la_data_in[24]
*132 la_data_in[25]
*133 la_data_in[26]
*134 la_data_in[27]
*135 la_data_in[28]
*136 la_data_in[29]
*137 la_data_in[2]
*138 la_data_in[30]
*139 la_data_in[31]
*140 la_data_in[32]
*141 la_data_in[33]
*142 la_data_in[34]
*143 la_data_in[35]
*144 la_data_in[36]
*145 la_data_in[37]
*146 la_data_in[38]
*147 la_data_in[39]
*148 la_data_in[3]
*149 la_data_in[40]
*150 la_data_in[41]
*151 la_data_in[42]
*152 la_data_in[43]
*153 la_data_in[44]
*154 la_data_in[45]
*155 la_data_in[46]
*156 la_data_in[47]
*157 la_data_in[48]
*158 la_data_in[49]
*159 la_data_in[4]
*160 la_data_in[50]
*161 la_data_in[51]
*162 la_data_in[52]
*163 la_data_in[53]
*164 la_data_in[54]
*165 la_data_in[55]
*166 la_data_in[56]
*167 la_data_in[57]
*168 la_data_in[58]
*169 la_data_in[59]
*170 la_data_in[5]
*171 la_data_in[60]
*172 la_data_in[61]
*173 la_data_in[62]
*174 la_data_in[63]
*175 la_data_in[6]
*176 la_data_in[7]
*177 la_data_in[8]
*178 la_data_in[9]
*179 la_data_out[0]
*180 la_data_out[10]
*181 la_data_out[11]
*182 la_data_out[12]
*183 la_data_out[13]
*184 la_data_out[14]
*185 la_data_out[15]
*186 la_data_out[16]
*187 la_data_out[17]
*188 la_data_out[18]
*189 la_data_out[19]
*190 la_data_out[1]
*191 la_data_out[20]
*192 la_data_out[21]
*193 la_data_out[22]
*194 la_data_out[23]
*195 la_data_out[24]
*196 la_data_out[25]
*197 la_data_out[26]
*198 la_data_out[27]
*199 la_data_out[28]
*200 la_data_out[29]
*201 la_data_out[2]
*202 la_data_out[30]
*203 la_data_out[31]
*204 la_data_out[32]
*205 la_data_out[33]
*206 la_data_out[34]
*207 la_data_out[35]
*208 la_data_out[36]
*209 la_data_out[37]
*210 la_data_out[38]
*211 la_data_out[39]
*212 la_data_out[3]
*213 la_data_out[40]
*214 la_data_out[41]
*215 la_data_out[42]
*216 la_data_out[43]
*217 la_data_out[44]
*218 la_data_out[45]
*219 la_data_out[46]
*220 la_data_out[47]
*221 la_data_out[48]
*222 la_data_out[49]
*223 la_data_out[4]
*224 la_data_out[50]
*225 la_data_out[51]
*226 la_data_out[52]
*227 la_data_out[53]
*228 la_data_out[54]
*229 la_data_out[55]
*230 la_data_out[56]
*231 la_data_out[57]
*232 la_data_out[58]
*233 la_data_out[59]
*234 la_data_out[5]
*235 la_data_out[60]
*236 la_data_out[61]
*237 la_data_out[62]
*238 la_data_out[63]
*239 la_data_out[6]
*240 la_data_out[7]
*241 la_data_out[8]
*242 la_data_out[9]
*243 la_oenb[0]
*244 la_oenb[10]
*245 la_oenb[11]
*246 la_oenb[12]
*247 la_oenb[13]
*248 la_oenb[14]
*249 la_oenb[15]
*250 la_oenb[16]
*251 la_oenb[17]
*252 la_oenb[18]
*253 la_oenb[19]
*254 la_oenb[1]
*255 la_oenb[20]
*256 la_oenb[21]
*257 la_oenb[22]
*258 la_oenb[23]
*259 la_oenb[24]
*260 la_oenb[25]
*261 la_oenb[26]
*262 la_oenb[27]
*263 la_oenb[28]
*264 la_oenb[29]
*265 la_oenb[2]
*266 la_oenb[30]
*267 la_oenb[31]
*268 la_oenb[32]
*269 la_oenb[33]
*270 la_oenb[34]
*271 la_oenb[35]
*272 la_oenb[36]
*273 la_oenb[37]
*274 la_oenb[38]
*275 la_oenb[39]
*276 la_oenb[3]
*277 la_oenb[40]
*278 la_oenb[41]
*279 la_oenb[42]
*280 la_oenb[43]
*281 la_oenb[44]
*282 la_oenb[45]
*283 la_oenb[46]
*284 la_oenb[47]
*285 la_oenb[48]
*286 la_oenb[49]
*287 la_oenb[4]
*288 la_oenb[50]
*289 la_oenb[51]
*290 la_oenb[52]
*291 la_oenb[53]
*292 la_oenb[54]
*293 la_oenb[55]
*294 la_oenb[56]
*295 la_oenb[57]
*296 la_oenb[58]
*297 la_oenb[59]
*298 la_oenb[5]
*299 la_oenb[60]
*300 la_oenb[61]
*301 la_oenb[62]
*302 la_oenb[63]
*303 la_oenb[6]
*304 la_oenb[7]
*305 la_oenb[8]
*306 la_oenb[9]
*307 user_clock2
*308 user_irq[0]
*309 user_irq[1]
*310 user_irq[2]
*313 wb_clk_i
*314 wb_rst_i
*315 wbs_ack_o
*316 wbs_adr_i[0]
*317 wbs_adr_i[10]
*318 wbs_adr_i[11]
*319 wbs_adr_i[12]
*320 wbs_adr_i[13]
*321 wbs_adr_i[14]
*322 wbs_adr_i[15]
*323 wbs_adr_i[16]
*324 wbs_adr_i[17]
*325 wbs_adr_i[18]
*326 wbs_adr_i[19]
*327 wbs_adr_i[1]
*328 wbs_adr_i[20]
*329 wbs_adr_i[21]
*330 wbs_adr_i[22]
*331 wbs_adr_i[23]
*332 wbs_adr_i[24]
*333 wbs_adr_i[25]
*334 wbs_adr_i[26]
*335 wbs_adr_i[27]
*336 wbs_adr_i[28]
*337 wbs_adr_i[29]
*338 wbs_adr_i[2]
*339 wbs_adr_i[30]
*340 wbs_adr_i[31]
*341 wbs_adr_i[3]
*342 wbs_adr_i[4]
*343 wbs_adr_i[5]
*344 wbs_adr_i[6]
*345 wbs_adr_i[7]
*346 wbs_adr_i[8]
*347 wbs_adr_i[9]
*348 wbs_cyc_i
*349 wbs_dat_i[0]
*350 wbs_dat_i[10]
*351 wbs_dat_i[11]
*352 wbs_dat_i[12]
*353 wbs_dat_i[13]
*354 wbs_dat_i[14]
*355 wbs_dat_i[15]
*356 wbs_dat_i[16]
*357 wbs_dat_i[17]
*358 wbs_dat_i[18]
*359 wbs_dat_i[19]
*360 wbs_dat_i[1]
*361 wbs_dat_i[20]
*362 wbs_dat_i[21]
*363 wbs_dat_i[22]
*364 wbs_dat_i[23]
*365 wbs_dat_i[24]
*366 wbs_dat_i[25]
*367 wbs_dat_i[26]
*368 wbs_dat_i[27]
*369 wbs_dat_i[28]
*370 wbs_dat_i[29]
*371 wbs_dat_i[2]
*372 wbs_dat_i[30]
*373 wbs_dat_i[31]
*374 wbs_dat_i[3]
*375 wbs_dat_i[4]
*376 wbs_dat_i[5]
*377 wbs_dat_i[6]
*378 wbs_dat_i[7]
*379 wbs_dat_i[8]
*380 wbs_dat_i[9]
*381 wbs_dat_o[0]
*382 wbs_dat_o[10]
*383 wbs_dat_o[11]
*384 wbs_dat_o[12]
*385 wbs_dat_o[13]
*386 wbs_dat_o[14]
*387 wbs_dat_o[15]
*388 wbs_dat_o[16]
*389 wbs_dat_o[17]
*390 wbs_dat_o[18]
*391 wbs_dat_o[19]
*392 wbs_dat_o[1]
*393 wbs_dat_o[20]
*394 wbs_dat_o[21]
*395 wbs_dat_o[22]
*396 wbs_dat_o[23]
*397 wbs_dat_o[24]
*398 wbs_dat_o[25]
*399 wbs_dat_o[26]
*400 wbs_dat_o[27]
*401 wbs_dat_o[28]
*402 wbs_dat_o[29]
*403 wbs_dat_o[2]
*404 wbs_dat_o[30]
*405 wbs_dat_o[31]
*406 wbs_dat_o[3]
*407 wbs_dat_o[4]
*408 wbs_dat_o[5]
*409 wbs_dat_o[6]
*410 wbs_dat_o[7]
*411 wbs_dat_o[8]
*412 wbs_dat_o[9]
*413 wbs_sel_i[0]
*414 wbs_sel_i[1]
*415 wbs_sel_i[2]
*416 wbs_sel_i[3]
*417 wbs_stb_i
*418 wbs_we_i
*419 mprj

*PORTS
io_in[0] I
io_in[10] I
io_in[11] I
io_in[12] I
io_in[13] I
io_in[14] I
io_in[15] I
io_in[16] I
io_in[17] I
io_in[18] I
io_in[19] I
io_in[1] I
io_in[20] I
io_in[21] I
io_in[22] I
io_in[23] I
io_in[24] I
io_in[25] I
io_in[26] I
io_in[27] I
io_in[28] I
io_in[29] I
io_in[2] I
io_in[30] I
io_in[31] I
io_in[32] I
io_in[33] I
io_in[34] I
io_in[35] I
io_in[36] I
io_in[37] I
io_in[3] I
io_in[4] I
io_in[5] I
io_in[6] I
io_in[7] I
io_in[8] I
io_in[9] I
io_oeb[0] O
io_oeb[10] O
io_oeb[11] O
io_oeb[12] O
io_oeb[13] O
io_oeb[14] O
io_oeb[15] O
io_oeb[16] O
io_oeb[17] O
io_oeb[18] O
io_oeb[19] O
io_oeb[1] O
io_oeb[20] O
io_oeb[21] O
io_oeb[22] O
io_oeb[23] O
io_oeb[24] O
io_oeb[25] O
io_oeb[26] O
io_oeb[27] O
io_oeb[28] O
io_oeb[29] O
io_oeb[2] O
io_oeb[30] O
io_oeb[31] O
io_oeb[32] O
io_oeb[33] O
io_oeb[34] O
io_oeb[35] O
io_oeb[36] O
io_oeb[37] O
io_oeb[3] O
io_oeb[4] O
io_oeb[5] O
io_oeb[6] O
io_oeb[7] O
io_oeb[8] O
io_oeb[9] O
io_out[0] O
io_out[10] O
io_out[11] O
io_out[12] O
io_out[13] O
io_out[14] O
io_out[15] O
io_out[16] O
io_out[17] O
io_out[18] O
io_out[19] O
io_out[1] O
io_out[20] O
io_out[21] O
io_out[22] O
io_out[23] O
io_out[24] O
io_out[25] O
io_out[26] O
io_out[27] O
io_out[28] O
io_out[29] O
io_out[2] O
io_out[30] O
io_out[31] O
io_out[32] O
io_out[33] O
io_out[34] O
io_out[35] O
io_out[36] O
io_out[37] O
io_out[3] O
io_out[4] O
io_out[5] O
io_out[6] O
io_out[7] O
io_out[8] O
io_out[9] O
la_data_in[0] I
la_data_in[10] I
la_data_in[11] I
la_data_in[12] I
la_data_in[13] I
la_data_in[14] I
la_data_in[15] I
la_data_in[16] I
la_data_in[17] I
la_data_in[18] I
la_data_in[19] I
la_data_in[1] I
la_data_in[20] I
la_data_in[21] I
la_data_in[22] I
la_data_in[23] I
la_data_in[24] I
la_data_in[25] I
la_data_in[26] I
la_data_in[27] I
la_data_in[28] I
la_data_in[29] I
la_data_in[2] I
la_data_in[30] I
la_data_in[31] I
la_data_in[32] I
la_data_in[33] I
la_data_in[34] I
la_data_in[35] I
la_data_in[36] I
la_data_in[37] I
la_data_in[38] I
la_data_in[39] I
la_data_in[3] I
la_data_in[40] I
la_data_in[41] I
la_data_in[42] I
la_data_in[43] I
la_data_in[44] I
la_data_in[45] I
la_data_in[46] I
la_data_in[47] I
la_data_in[48] I
la_data_in[49] I
la_data_in[4] I
la_data_in[50] I
la_data_in[51] I
la_data_in[52] I
la_data_in[53] I
la_data_in[54] I
la_data_in[55] I
la_data_in[56] I
la_data_in[57] I
la_data_in[58] I
la_data_in[59] I
la_data_in[5] I
la_data_in[60] I
la_data_in[61] I
la_data_in[62] I
la_data_in[63] I
la_data_in[6] I
la_data_in[7] I
la_data_in[8] I
la_data_in[9] I
la_data_out[0] O
la_data_out[10] O
la_data_out[11] O
la_data_out[12] O
la_data_out[13] O
la_data_out[14] O
la_data_out[15] O
la_data_out[16] O
la_data_out[17] O
la_data_out[18] O
la_data_out[19] O
la_data_out[1] O
la_data_out[20] O
la_data_out[21] O
la_data_out[22] O
la_data_out[23] O
la_data_out[24] O
la_data_out[25] O
la_data_out[26] O
la_data_out[27] O
la_data_out[28] O
la_data_out[29] O
la_data_out[2] O
la_data_out[30] O
la_data_out[31] O
la_data_out[32] O
la_data_out[33] O
la_data_out[34] O
la_data_out[35] O
la_data_out[36] O
la_data_out[37] O
la_data_out[38] O
la_data_out[39] O
la_data_out[3] O
la_data_out[40] O
la_data_out[41] O
la_data_out[42] O
la_data_out[43] O
la_data_out[44] O
la_data_out[45] O
la_data_out[46] O
la_data_out[47] O
la_data_out[48] O
la_data_out[49] O
la_data_out[4] O
la_data_out[50] O
la_data_out[51] O
la_data_out[52] O
la_data_out[53] O
la_data_out[54] O
la_data_out[55] O
la_data_out[56] O
la_data_out[57] O
la_data_out[58] O
la_data_out[59] O
la_data_out[5] O
la_data_out[60] O
la_data_out[61] O
la_data_out[62] O
la_data_out[63] O
la_data_out[6] O
la_data_out[7] O
la_data_out[8] O
la_data_out[9] O
la_oenb[0] I
la_oenb[10] I
la_oenb[11] I
la_oenb[12] I
la_oenb[13] I
la_oenb[14] I
la_oenb[15] I
la_oenb[16] I
la_oenb[17] I
la_oenb[18] I
la_oenb[19] I
la_oenb[1] I
la_oenb[20] I
la_oenb[21] I
la_oenb[22] I
la_oenb[23] I
la_oenb[24] I
la_oenb[25] I
la_oenb[26] I
la_oenb[27] I
la_oenb[28] I
la_oenb[29] I
la_oenb[2] I
la_oenb[30] I
la_oenb[31] I
la_oenb[32] I
la_oenb[33] I
la_oenb[34] I
la_oenb[35] I
la_oenb[36] I
la_oenb[37] I
la_oenb[38] I
la_oenb[39] I
la_oenb[3] I
la_oenb[40] I
la_oenb[41] I
la_oenb[42] I
la_oenb[43] I
la_oenb[44] I
la_oenb[45] I
la_oenb[46] I
la_oenb[47] I
la_oenb[48] I
la_oenb[49] I
la_oenb[4] I
la_oenb[50] I
la_oenb[51] I
la_oenb[52] I
la_oenb[53] I
la_oenb[54] I
la_oenb[55] I
la_oenb[56] I
la_oenb[57] I
la_oenb[58] I
la_oenb[59] I
la_oenb[5] I
la_oenb[60] I
la_oenb[61] I
la_oenb[62] I
la_oenb[63] I
la_oenb[6] I
la_oenb[7] I
la_oenb[8] I
la_oenb[9] I
user_clock2 I
user_irq[0] O
user_irq[1] O
user_irq[2] O
wb_clk_i I
wb_rst_i I
wbs_ack_o O
wbs_adr_i[0] I
wbs_adr_i[10] I
wbs_adr_i[11] I
wbs_adr_i[12] I
wbs_adr_i[13] I
wbs_adr_i[14] I
wbs_adr_i[15] I
wbs_adr_i[16] I
wbs_adr_i[17] I
wbs_adr_i[18] I
wbs_adr_i[19] I
wbs_adr_i[1] I
wbs_adr_i[20] I
wbs_adr_i[21] I
wbs_adr_i[22] I
wbs_adr_i[23] I
wbs_adr_i[24] I
wbs_adr_i[25] I
wbs_adr_i[26] I
wbs_adr_i[27] I
wbs_adr_i[28] I
wbs_adr_i[29] I
wbs_adr_i[2] I
wbs_adr_i[30] I
wbs_adr_i[31] I
wbs_adr_i[3] I
wbs_adr_i[4] I
wbs_adr_i[5] I
wbs_adr_i[6] I
wbs_adr_i[7] I
wbs_adr_i[8] I
wbs_adr_i[9] I
wbs_cyc_i I
wbs_dat_i[0] I
wbs_dat_i[10] I
wbs_dat_i[11] I
wbs_dat_i[12] I
wbs_dat_i[13] I
wbs_dat_i[14] I
wbs_dat_i[15] I
wbs_dat_i[16] I
wbs_dat_i[17] I
wbs_dat_i[18] I
wbs_dat_i[19] I
wbs_dat_i[1] I
wbs_dat_i[20] I
wbs_dat_i[21] I
wbs_dat_i[22] I
wbs_dat_i[23] I
wbs_dat_i[24] I
wbs_dat_i[25] I
wbs_dat_i[26] I
wbs_dat_i[27] I
wbs_dat_i[28] I
wbs_dat_i[29] I
wbs_dat_i[2] I
wbs_dat_i[30] I
wbs_dat_i[31] I
wbs_dat_i[3] I
wbs_dat_i[4] I
wbs_dat_i[5] I
wbs_dat_i[6] I
wbs_dat_i[7] I
wbs_dat_i[8] I
wbs_dat_i[9] I
wbs_dat_o[0] O
wbs_dat_o[10] O
wbs_dat_o[11] O
wbs_dat_o[12] O
wbs_dat_o[13] O
wbs_dat_o[14] O
wbs_dat_o[15] O
wbs_dat_o[16] O
wbs_dat_o[17] O
wbs_dat_o[18] O
wbs_dat_o[19] O
wbs_dat_o[1] O
wbs_dat_o[20] O
wbs_dat_o[21] O
wbs_dat_o[22] O
wbs_dat_o[23] O
wbs_dat_o[24] O
wbs_dat_o[25] O
wbs_dat_o[26] O
wbs_dat_o[27] O
wbs_dat_o[28] O
wbs_dat_o[29] O
wbs_dat_o[2] O
wbs_dat_o[30] O
wbs_dat_o[31] O
wbs_dat_o[3] O
wbs_dat_o[4] O
wbs_dat_o[5] O
wbs_dat_o[6] O
wbs_dat_o[7] O
wbs_dat_o[8] O
wbs_dat_o[9] O
wbs_sel_i[0] I
wbs_sel_i[1] I
wbs_sel_i[2] I
wbs_sel_i[3] I
wbs_stb_i I
wbs_we_i I

*D_NET *1 0.396677
*CONN
*P io_in[0] I
*I *419:io_in[0] I *D tiny_user_project
*CAP
1 io_in[0] 0.00353166
2 *419:io_in[0] 0.00153678
3 *1:14 0.0485469
4 *1:13 0.0470102
5 *1:11 0.0672215
6 *1:10 0.0707532
7 *419:io_in[0] *419:io_in[27] 0
8 *419:io_in[0] *20:19 0.00226847
9 *1:11 io_out[0] 0
10 *1:11 *77:17 0
11 *1:11 *117:16 0.0588692
12 *1:14 *4:16 0.0064665
13 *1:14 *122:19 0.00796477
14 *1:14 *212:19 0.0391966
15 *1:14 *233:13 0.0433115
*RES
1 io_in[0] *1:10 36.675 
2 *1:10 *1:11 576.63 
3 *1:11 *1:13 4.5 
4 *1:13 *1:14 482.49 
5 *1:14 *419:io_in[0] 29.61 
*END

*D_NET *2 0.20401
*CONN
*P io_in[10] I
*I *419:io_in[10] I *D tiny_user_project
*CAP
1 io_in[10] 0.00471726
2 *419:io_in[10] 0.00113294
3 *2:12 0.0136462
4 *2:11 0.0125133
5 *2:9 0.069732
6 *2:7 0.0744492
7 *419:io_in[10] *182:14 0.000604356
8 *419:io_in[10] *220:12 3.20982e-05
9 *2:12 *419:la_data_in[57] 0.00766497
10 *2:12 *143:19 0.0142331
11 *2:12 *306:19 0.00528509
*RES
1 io_in[10] *2:7 37.305 
2 *2:7 *2:9 543.42 
3 *2:9 *2:11 4.5 
4 *2:11 *2:12 130.41 
5 *2:12 *419:io_in[10] 22.68 
*END

*D_NET *3 0.298021
*CONN
*P io_in[11] I
*I *419:io_in[11] I *D tiny_user_project
*CAP
1 io_in[11] 0.000363112
2 *419:io_in[11] 0.00165919
3 *3:16 0.0270178
4 *3:15 0.0253586
5 *3:13 0.0920414
6 *3:11 0.0924045
7 *419:io_in[11] *419:io_in[14] 6.67147e-05
8 *419:io_in[11] *103:12 0
9 *3:16 *82:13 0.0343214
10 *3:16 *220:13 0.00339596
11 *3:16 *263:19 0.021392
*RES
1 io_in[11] *3:11 3.195 
2 *3:11 *3:13 582.21 
3 *3:13 *3:15 4.5 
4 *3:15 *3:16 265.95 
5 *3:16 *419:io_in[11] 25.02 
*END

*D_NET *4 0.258337
*CONN
*P io_in[12] I
*I *419:io_in[12] I *D tiny_user_project
*CAP
1 io_in[12] 0.000167227
2 *419:io_in[12] 0.00211948
3 *4:16 0.0315144
4 *4:15 0.0293949
5 *4:13 0.0748981
6 *4:11 0.0750654
7 *4:16 *75:13 0.000813117
8 *4:16 *122:19 0.0378978
9 *1:14 *4:16 0.0064665
*RES
1 io_in[12] *4:11 2.115 
2 *4:11 *4:13 585.09 
3 *4:13 *4:15 4.5 
4 *4:15 *4:16 278.19 
5 *4:16 *419:io_in[12] 27.9 
*END

*D_NET *5 0.301645
*CONN
*P io_in[13] I
*I *419:io_in[13] I *D tiny_user_project
*CAP
1 io_in[13] 0.0755589
2 *419:io_in[13] 0.00293775
3 *5:8 0.0430312
4 *5:7 0.0400934
5 *5:5 0.0755589
6 *419:io_in[13] *140:33 0
7 *5:8 *70:13 0.0274416
8 *5:8 *120:19 0.0370234
*RES
1 io_in[13] *5:5 590.625 
2 *5:5 *5:7 4.5 
3 *5:7 *5:8 383.49 
4 *5:8 *419:io_in[13] 34.02 
*END

*D_NET *6 0.330521
*CONN
*P io_in[14] I
*I *419:io_in[14] I *D tiny_user_project
*CAP
1 io_in[14] 0.000264341
2 *419:io_in[14] 0.00317472
3 *6:16 0.0513173
4 *6:15 0.0481425
5 *6:13 0.0758147
6 *6:11 0.076079
7 *419:io_in[14] *419:la_data_in[42] 0.000649686
8 *419:io_in[14] *103:9 0.000154731
9 *6:16 *141:15 0.026368
10 *6:16 *227:13 0.0484892
11 *419:io_in[11] *419:io_in[14] 6.67147e-05
*RES
1 io_in[14] *6:11 2.655 
2 *6:11 *6:13 593.19 
3 *6:13 *6:15 4.5 
4 *6:15 *6:16 459.09 
5 *6:16 *419:io_in[14] 38.25 
*END

*D_NET *7 0.369076
*CONN
*P io_in[15] I
*I *419:io_in[15] I *D tiny_user_project
*CAP
1 io_in[15] 0.00105188
2 *419:io_in[15] 7.34135e-05
3 *7:11 0.0475673
4 *7:10 0.0474939
5 *7:8 0.0238522
6 *7:7 0.0249041
7 *419:io_in[15] *207:10 2.165e-05
8 *7:8 *15:8 0.0394766
9 *7:8 *16:8 0.0415838
10 *7:8 *46:17 0.0505622
11 *7:8 *83:17 0.0770813
12 *7:8 *86:18 0.0153987
13 *7:11 *112:45 0
14 *7:11 *207:10 9.52821e-06
*RES
1 io_in[15] *7:7 12.645 
2 *7:7 *7:8 457.83 
3 *7:8 *7:10 4.5 
4 *7:10 *7:11 357.75 
5 *7:11 *419:io_in[15] 9.63 
*END

*D_NET *8 0.216197
*CONN
*P io_in[16] I
*I *419:io_in[16] I *D tiny_user_project
*CAP
1 io_in[16] 0.000247817
2 *419:io_in[16] 0.000411314
3 *8:22 0.0244466
4 *8:21 0.0240353
5 *8:19 0.0143619
6 *8:18 0.0143619
7 *8:16 0.00757771
8 *8:15 0.00757771
9 *8:13 0.0551027
10 *8:11 0.0553505
11 *8:22 *127:16 0.0127239
*RES
1 io_in[16] *8:11 2.655 
2 *8:11 *8:13 421.47 
3 *8:13 *8:15 4.5 
4 *8:15 *8:16 58.23 
5 *8:16 *8:18 4.5 
6 *8:18 *8:19 109.35 
7 *8:19 *8:21 4.5 
8 *8:21 *8:22 193.14 
9 *8:22 *419:io_in[16] 3.015 
*END

*D_NET *9 0.1523
*CONN
*P io_in[17] I
*I *419:io_in[17] I *D tiny_user_project
*CAP
1 io_in[17] 0.00135044
2 *419:io_in[17] 0.000372304
3 *9:14 0.0182747
4 *9:13 0.0179024
5 *9:11 0.0469705
6 *9:10 0.048321
7 *419:io_in[17] *419:la_data_in[10] 1.34318e-05
8 *9:10 *83:17 0.000231119
9 *9:11 *282:15 0.00964438
10 *9:14 *419:la_data_in[10] 0.00921925
11 *9:14 *84:19 0
12 *9:14 *231:17 0
*RES
1 io_in[17] *9:10 19.755 
2 *9:10 *9:11 370.71 
3 *9:11 *9:13 4.5 
4 *9:13 *9:14 146.61 
5 *9:14 *419:io_in[17] 11.025 
*END

*D_NET *10 0.146332
*CONN
*P io_in[18] I
*I *419:io_in[18] I *D tiny_user_project
*CAP
1 io_in[18] 0.00137713
2 *419:io_in[18] 0.00507622
3 *10:14 0.0140218
4 *10:13 0.00894558
5 *10:11 0.0426405
6 *10:10 0.0440176
7 *419:io_in[18] *419:la_data_in[26] 3.38585e-05
8 *10:10 *86:18 0.000221982
9 *10:14 *91:15 0.0299977
*RES
1 io_in[18] *10:10 19.755 
2 *10:10 *10:11 327.87 
3 *10:11 *10:13 4.5 
4 *10:13 *10:14 105.93 
5 *10:14 *419:io_in[18] 45.18 
*END

*D_NET *11 0.251367
*CONN
*P io_in[19] I
*I *419:io_in[19] I *D tiny_user_project
*CAP
1 io_in[19] 0.000178873
2 *419:io_in[19] 0.00553971
3 *11:19 0.0363395
4 *11:18 0.0307997
5 *11:16 0.00676544
6 *11:15 0.00676544
7 *11:13 0.046003
8 *11:11 0.0461818
9 *419:io_in[19] *213:11 0
10 *11:16 *261:14 0.0398817
11 *11:16 *278:14 0
12 *11:16 *378:8 0
13 *11:19 *184:12 0.0329114
*RES
1 io_in[19] *11:11 2.115 
2 *11:11 *11:13 351.27 
3 *11:13 *11:15 4.5 
4 *11:15 *11:16 100.17 
5 *11:16 *11:18 4.5 
6 *11:18 *11:19 225.45 
7 *11:19 *419:io_in[19] 40.815 
*END

*D_NET *12 0.430446
*CONN
*P io_in[1] I
*I *419:io_in[1] I *D tiny_user_project
*CAP
1 io_in[1] 0.000370905
2 *419:io_in[1] 0.00106163
3 *12:19 0.00900776
4 *12:18 0.00794612
5 *12:16 0.0690277
6 *12:15 0.0690277
7 *12:13 0.0284185
8 *12:11 0.0287894
9 *419:io_in[1] *419:wbs_adr_i[24] 0.000123262
10 *12:16 *280:13 0
11 *12:19 *36:19 0.000980045
12 *12:19 *38:11 0.0013827
13 *12:19 *38:17 0.00186632
14 *12:19 *60:15 0.0726055
15 *12:19 *74:11 0.00173509
16 *12:19 *112:41 0.0128013
17 *12:19 *158:14 0.114969
18 *12:19 *198:11 0.0103321
*RES
1 io_in[1] *12:11 3.195 
2 *12:11 *12:13 216.27 
3 *12:13 *12:15 4.5 
4 *12:15 *12:16 524.43 
5 *12:16 *12:18 4.5 
6 *12:18 *12:19 343.53 
7 *12:19 *419:io_in[1] 19.98 
*END

*D_NET *13 0.156286
*CONN
*P io_in[20] I
*I *419:io_in[20] I *D tiny_user_project
*CAP
1 io_in[20] 0.000982937
2 *419:io_in[20] 8.33608e-05
3 *13:11 0.0476895
4 *13:10 0.0476061
5 *13:8 0.00879893
6 *13:7 0.00978187
7 *13:8 *15:8 0.00861626
8 *13:8 *51:17 0.0327271
*RES
1 io_in[20] *13:7 12.105 
2 *13:7 *13:8 128.97 
3 *13:8 *13:10 4.5 
4 *13:10 *13:11 358.29 
5 *13:11 *419:io_in[20] 9.63 
*END

*D_NET *14 0.318015
*CONN
*P io_in[21] I
*I *419:io_in[21] I *D tiny_user_project
*CAP
1 io_in[21] 0.00107729
2 *419:io_in[21] 0.000734794
3 *14:14 0.00359544
4 *14:13 0.00286065
5 *14:11 0.0745449
6 *14:10 0.0756222
7 *419:io_in[21] *419:la_data_in[36] 6.85337e-05
8 *14:10 *15:8 0.00629032
9 *14:10 *16:8 0.00629802
10 *14:11 *416:21 0.0112018
11 *14:14 *17:19 0.0163071
12 *14:14 *42:11 0.0073146
13 *14:14 *46:11 0.0102773
14 *14:14 *85:11 0.0477565
15 *14:14 *96:11 0.0540657
*RES
1 io_in[21] *14:10 32.715 
2 *14:10 *14:11 580.23 
3 *14:11 *14:13 4.5 
4 *14:13 *14:14 213.39 
5 *14:14 *419:io_in[21] 18.1565 
*END

*D_NET *15 0.293654
*CONN
*P io_in[22] I
*I *419:io_in[22] I *D tiny_user_project
*CAP
1 io_in[22] 0.0010289
2 *419:io_in[22] 0.000192403
3 *15:11 0.0467136
4 *15:10 0.0465212
5 *15:8 0.0143098
6 *15:7 0.0153387
7 *419:io_in[22] *133:14 0.000266914
8 *419:io_in[22] *337:16 0.000172617
9 *419:io_in[22] *349:14 0.000163735
10 *15:8 *16:8 0.0499432
11 *15:8 *51:17 0.0611261
12 *15:11 *60:12 0.00236538
13 *15:11 *67:14 0.000209596
14 *15:11 *124:11 0.000918669
15 *7:8 *15:8 0.0394766
16 *13:8 *15:8 0.00861626
17 *14:10 *15:8 0.00629032
*RES
1 io_in[22] *15:7 12.465 
2 *15:7 *15:8 385.29 
3 *15:8 *15:10 4.5 
4 *15:10 *15:11 358.47 
5 *15:11 *419:io_in[22] 11.61 
*END

*D_NET *16 0.299964
*CONN
*P io_in[23] I
*I *419:io_in[23] I *D tiny_user_project
*CAP
1 io_in[23] 0.00107486
2 *419:io_in[23] 0.00118562
3 *16:11 0.0482576
4 *16:10 0.047072
5 *16:8 0.0402199
6 *16:7 0.0412948
7 *16:8 io_out[21] 0.000902427
8 *16:11 *91:12 0.022132
9 *7:8 *16:8 0.0415838
10 *14:10 *16:8 0.00629802
11 *15:8 *16:8 0.0499432
*RES
1 io_in[23] *16:7 12.825 
2 *16:7 *16:8 497.07 
3 *16:8 *16:10 4.5 
4 *16:10 *16:11 384.75 
5 *16:11 *419:io_in[23] 13.095 
*END

*D_NET *17 0.420449
*CONN
*P io_in[24] I
*I *419:io_in[24] I *D tiny_user_project
*CAP
1 io_in[24] 0.000201168
2 *419:io_in[24] 0.000720705
3 *17:19 0.0068815
4 *17:18 0.00616079
5 *17:16 0.0751347
6 *17:15 0.0751347
7 *17:13 0.0350826
8 *17:11 0.0352837
9 *419:io_in[24] *419:wbs_dat_i[2] 5.79038e-05
10 *17:16 *359:13 0
11 *17:19 *18:19 0.0750033
12 *17:19 *52:16 0.00306869
13 *17:19 *73:22 0.0242287
14 *17:19 *85:11 0.0575379
15 *17:19 *96:11 0.00694921
16 *17:19 *383:11 0.00269681
17 *14:14 *17:19 0.0163071
*RES
1 io_in[24] *17:11 1.935 
2 *17:11 *17:13 222.21 
3 *17:13 *17:15 4.5 
4 *17:15 *17:16 573.03 
5 *17:16 *17:18 4.5 
6 *17:18 *17:19 332.73 
7 *17:19 *419:io_in[24] 17.7965 
*END

*D_NET *18 0.305929
*CONN
*P io_in[25] I
*I *419:io_in[25] I *D tiny_user_project
*CAP
1 io_in[25] 0.000125876
2 *419:io_in[25] 0.000682203
3 *18:19 0.0308386
4 *18:18 0.0301564
5 *18:16 0.065884
6 *18:15 0.065884
7 *18:13 0.0121193
8 *18:11 0.0122452
9 *18:19 *52:17 0
10 *18:19 *73:22 0.0117028
11 *18:19 *95:11 0
12 *18:19 *383:11 0.00128723
13 *17:19 *18:19 0.0750033
*RES
1 io_in[25] *18:11 1.395 
2 *18:11 *18:13 76.41 
3 *18:13 *18:15 4.5 
4 *18:15 *18:16 505.35 
5 *18:16 *18:18 4.5 
6 *18:18 *18:19 335.97 
7 *18:19 *419:io_in[25] 17.6165 
*END

*D_NET *19 0.170773
*CONN
*P io_in[26] I
*I *419:io_in[26] I *D tiny_user_project
*CAP
1 io_in[26] 0.00224804
2 *419:io_in[26] 0.000345546
3 *19:11 0.0486563
4 *19:10 0.0483107
5 *19:8 0.0344681
6 *19:7 0.0367161
7 *419:io_in[26] *419:wbs_stb_i 2.85162e-05
8 *19:8 *314:13 0
*RES
1 io_in[26] *19:7 21.465 
2 *19:7 *19:8 264.87 
3 *19:8 *19:10 4.5 
4 *19:10 *19:11 368.01 
5 *19:11 *419:io_in[26] 11.88 
*END

*D_NET *20 0.161552
*CONN
*P io_in[27] I
*I *419:io_in[27] I *D tiny_user_project
*CAP
1 io_in[27] 0.00035683
2 *419:io_in[27] 0.000150089
3 *20:19 0.0234556
4 *20:18 0.0233055
5 *20:16 0.0294815
6 *20:15 0.0294815
7 *20:13 0.0263478
8 *20:11 0.0267046
9 *419:io_in[0] *419:io_in[27] 0
10 *419:io_in[0] *20:19 0.00226847
*RES
1 io_in[27] *20:11 3.015 
2 *20:11 *20:13 206.01 
3 *20:13 *20:15 4.5 
4 *20:15 *20:16 224.19 
5 *20:16 *20:18 4.5 
6 *20:18 *20:19 179.01 
7 *20:19 *419:io_in[27] 10.17 
*END

*D_NET *21 0.138175
*CONN
*P io_in[28] I
*I *419:io_in[28] I *D tiny_user_project
*CAP
1 io_in[28] 0.000249598
2 *419:io_in[28] 0.000214255
3 *21:19 0.0213591
4 *21:18 0.0211448
5 *21:16 0.0182891
6 *21:15 0.0182891
7 *21:13 0.0291896
8 *21:11 0.0294392
9 *419:io_in[28] *419:wbs_dat_i[10] 0
10 *21:16 *52:20 0
*RES
1 io_in[28] *21:11 2.475 
2 *21:11 *21:13 227.61 
3 *21:13 *21:15 4.5 
4 *21:15 *21:16 137.79 
5 *21:16 *21:18 4.5 
6 *21:18 *21:19 157.41 
7 *21:19 *419:io_in[28] 10.71 
*END

*D_NET *22 0.164372
*CONN
*P io_in[29] I
*I *419:io_in[29] I *D tiny_user_project
*CAP
1 io_in[29] 0.000177869
2 *419:io_in[29] 0.000291288
3 *22:19 0.017369
4 *22:18 0.0170777
5 *22:16 0.0136662
6 *22:15 0.0136662
7 *22:13 0.0179069
8 *22:11 0.0180847
9 *419:io_in[29] *419:la_oenb[28] 0.000154731
10 *22:13 *64:11 0.00277354
11 *22:13 *348:12 0.0253318
12 *22:13 *384:15 0.0360835
13 *22:16 *395:14 0
14 *22:19 *419:la_oenb[28] 0.00178868
*RES
1 io_in[29] *22:11 1.935 
2 *22:11 *22:13 254.61 
3 *22:13 *22:15 4.5 
4 *22:15 *22:16 102.69 
5 *22:16 *22:18 4.5 
6 *22:18 *22:19 130.41 
7 *22:19 *419:io_in[29] 11.79 
*END

*D_NET *23 0.518075
*CONN
*P io_in[2] I
*I *419:io_in[2] I *D tiny_user_project
*CAP
1 io_in[2] 0.000492522
2 *419:io_in[2] 0.000540507
3 *23:11 0.0276794
4 *23:10 0.0271389
5 *23:8 0.0058905
6 *23:7 0.00638303
7 *419:io_in[2] *419:io_in[3] 0.000221785
8 *419:io_in[2] *37:11 0.00189423
9 *419:io_in[2] *67:14 0
10 *419:io_in[2] *235:17 0.00168839
11 *23:8 *32:8 0.149962
12 *23:8 *39:12 0.153307
13 *23:8 *40:12 0.000446282
14 *23:8 *99:14 0.00755167
15 *23:11 *112:54 0.134879
*RES
1 io_in[2] *23:7 8.505 
2 *23:7 *23:8 448.11 
3 *23:8 *23:10 4.5 
4 *23:10 *23:11 370.53 
5 *23:11 *419:io_in[2] 17.145 
*END

*D_NET *24 0.215799
*CONN
*P io_in[30] I
*I *419:io_in[30] I *D tiny_user_project
*CAP
1 io_in[30] 0.00117627
2 *419:io_in[30] 0.00104301
3 *24:11 0.0515988
4 *24:10 0.0505558
5 *24:8 0.0219023
6 *24:7 0.0230786
7 *419:io_in[30] *79:10 1.13744e-05
8 *419:io_in[30] *253:13 0
9 *24:11 *419:wbs_adr_i[21] 0.000684836
10 *24:11 *419:wbs_dat_i[1] 0.00155275
11 *24:11 *46:11 0
12 *24:11 *114:11 0.0320206
13 *24:11 *181:16 0.00284909
14 *24:11 *182:18 0.0019626
15 *24:11 *200:13 0.00408917
16 *24:11 *241:18 0.0061472
17 *24:11 *345:16 0.00188863
18 *24:11 *353:16 0.0130288
19 *24:11 *356:24 0.00171735
20 *24:11 *383:11 0
21 *24:11 *398:13 0.000492336
22 *24:11 *401:11 0
*RES
1 io_in[30] *24:7 13.365 
2 *24:7 *24:8 168.39 
3 *24:8 *24:10 4.5 
4 *24:10 *24:11 510.39 
5 *24:11 *419:io_in[30] 20.1365 
*END

*D_NET *25 0.105318
*CONN
*P io_in[31] I
*I *419:io_in[31] I *D tiny_user_project
*CAP
1 io_in[31] 0.00635025
2 *419:io_in[31] 0.000150089
3 *25:15 0.0438349
4 *25:14 0.0447544
5 *25:9 0.00741986
6 *419:io_in[31] *419:la_oenb[39] 0
7 *25:15 *419:la_oenb[39] 0.00280882
*RES
1 io_in[31] *25:9 48.465 
2 *25:9 *25:14 17.19 
3 *25:14 *25:15 336.87 
4 *25:15 *419:io_in[31] 10.17 
*END

*D_NET *26 0.22115
*CONN
*P io_in[32] I
*I *419:io_in[32] I *D tiny_user_project
*CAP
1 io_in[32] 0.000323383
2 *419:io_in[32] 0.0024694
3 *26:19 0.00748333
4 *26:18 0.00885819
5 *26:13 0.0520865
6 *26:11 0.0485656
7 *26:18 *141:15 0
8 *26:18 *195:13 0.00413668
9 *26:19 *88:11 0
10 *26:19 *98:11 0.0633067
11 *26:19 *128:16 0.0302537
12 *26:19 *190:19 0.00191381
13 *26:19 *283:14 0.00175275
*RES
1 io_in[32] *26:11 3.015 
2 *26:11 *26:13 365.31 
3 *26:13 *26:18 47.25 
4 *26:18 *26:19 193.95 
5 *26:19 *419:io_in[32] 28.4165 
*END

*D_NET *27 0.125466
*CONN
*P io_in[33] I
*I *419:io_in[33] I *D tiny_user_project
*CAP
1 io_in[33] 0.000242542
2 *419:io_in[33] 0.000150089
3 *27:19 0.0400323
4 *27:18 0.0398822
5 *27:16 0.00752724
6 *27:15 0.00752724
7 *27:13 0.011466
8 *27:11 0.0117086
9 *27:16 *415:11 0.00692953
*RES
1 io_in[33] *27:11 2.475 
2 *27:11 *27:13 87.39 
3 *27:13 *27:15 4.5 
4 *27:15 *27:16 64.89 
5 *27:16 *27:18 4.5 
6 *27:18 *27:19 297.63 
7 *27:19 *419:io_in[33] 10.17 
*END

*D_NET *28 0.223419
*CONN
*P io_in[34] I
*I *419:io_in[34] I *D tiny_user_project
*CAP
1 io_in[34] 0.000177869
2 *419:io_in[34] 0.000193783
3 *28:19 0.0101671
4 *28:18 0.00997333
5 *28:16 0.034036
6 *28:15 0.034036
7 *28:13 0.0386525
8 *28:11 0.0388304
9 *419:io_in[34] *419:la_data_in[27] 1.41827e-05
10 *28:16 *397:14 0.0323628
11 *28:19 *60:21 0.0100918
12 *28:19 *134:20 0.014883
*RES
1 io_in[34] *28:11 1.935 
2 *28:11 *28:13 292.59 
3 *28:13 *28:15 4.5 
4 *28:15 *28:16 294.57 
5 *28:16 *28:18 4.5 
6 *28:18 *28:19 92.43 
7 *28:19 *419:io_in[34] 9.99 
*END

*D_NET *29 0.365675
*CONN
*P io_in[35] I
*I *419:io_in[35] I *D tiny_user_project
*CAP
1 io_in[35] 0.000113196
2 *419:io_in[35] 0.00125145
3 *29:19 0.0328408
4 *29:18 0.0315893
5 *29:16 0.0529219
6 *29:15 0.0529219
7 *29:13 0.0125544
8 *29:11 0.0126676
9 *419:io_in[35] *164:22 0.00061344
10 *29:19 *67:15 0
11 *29:19 *75:16 0
12 *29:19 *112:48 0.0301455
13 *29:19 *223:11 0.0128316
14 *29:19 *307:14 0.000220858
15 *29:19 *314:16 0.125003
*RES
1 io_in[35] *29:11 1.395 
2 *29:11 *29:13 95.31 
3 *29:13 *29:15 4.5 
4 *29:15 *29:16 404.01 
5 *29:16 *29:18 4.5 
6 *29:18 *29:19 460.71 
7 *29:19 *419:io_in[35] 21.06 
*END

*D_NET *30 0.377672
*CONN
*P io_in[36] I
*I *419:io_in[36] I *D tiny_user_project
*CAP
1 io_in[36] 0.00177706
2 *419:io_in[36] 0.00266518
3 *30:12 0.0340643
4 *30:11 0.0313991
5 *30:9 0.0776814
6 *30:7 0.0794585
7 *419:io_in[36] *419:wbs_dat_i[0] 0.000100158
8 *30:12 *69:12 0.13351
9 *30:12 *152:15 0
10 *30:12 *240:14 0.0170172
*RES
1 io_in[36] *30:7 13.185 
2 *30:7 *30:9 583.38 
3 *30:9 *30:11 4.5 
4 *30:11 *30:12 440.37 
5 *30:12 *419:io_in[36] 23.535 
*END

*D_NET *31 0.39335
*CONN