*SPEF "ieee 1481-1999"
*DESIGN "user_project_wrapper"
*DATE "11:11:11 Fri 11 11, 1111"
*VENDOR "OpenRCX"
*PROGRAM "Parallel Extraction"
*VERSION "1.0"
*DESIGN_FLOW "NAME_SCOPE LOCAL" "PIN_CAP NONE"
*DIVIDER /
*DELIMITER :
*BUS_DELIMITER []
*T_UNIT 1 NS
*C_UNIT 1 PF
*R_UNIT 1 OHM
*L_UNIT 1 HENRY

*NAME_MAP
*1 io_in[0]
*2 io_in[10]
*3 io_in[11]
*4 io_in[12]
*5 io_in[13]
*6 io_in[14]
*7 io_in[15]
*8 io_in[16]
*9 io_in[17]
*10 io_in[18]
*11 io_in[19]
*12 io_in[1]
*13 io_in[20]
*14 io_in[21]
*15 io_in[22]
*16 io_in[23]
*17 io_in[24]
*18 io_in[25]
*19 io_in[26]
*20 io_in[27]
*21 io_in[28]
*22 io_in[29]
*23 io_in[2]
*24 io_in[30]
*25 io_in[31]
*26 io_in[32]
*27 io_in[33]
*28 io_in[34]
*29 io_in[35]
*30 io_in[36]
*31 io_in[37]
*32 io_in[3]
*33 io_in[4]
*34 io_in[5]
*35 io_in[6]
*36 io_in[7]
*37 io_in[8]
*38 io_in[9]
*39 io_oeb[0]
*40 io_oeb[10]
*41 io_oeb[11]
*42 io_oeb[12]
*43 io_oeb[13]
*44 io_oeb[14]
*45 io_oeb[15]
*46 io_oeb[16]
*47 io_oeb[17]
*48 io_oeb[18]
*49 io_oeb[19]
*50 io_oeb[1]
*51 io_oeb[20]
*52 io_oeb[21]
*53 io_oeb[22]
*54 io_oeb[23]
*55 io_oeb[24]
*56 io_oeb[25]
*57 io_oeb[26]
*58 io_oeb[27]
*59 io_oeb[28]
*60 io_oeb[29]
*61 io_oeb[2]
*62 io_oeb[30]
*63 io_oeb[31]
*64 io_oeb[32]
*65 io_oeb[33]
*66 io_oeb[34]
*67 io_oeb[35]
*68 io_oeb[36]
*69 io_oeb[37]
*70 io_oeb[3]
*71 io_oeb[4]
*72 io_oeb[5]
*73 io_oeb[6]
*74 io_oeb[7]
*75 io_oeb[8]
*76 io_oeb[9]
*77 io_out[0]
*78 io_out[10]
*79 io_out[11]
*80 io_out[12]
*81 io_out[13]
*82 io_out[14]
*83 io_out[15]
*84 io_out[16]
*85 io_out[17]
*86 io_out[18]
*87 io_out[19]
*88 io_out[1]
*89 io_out[20]
*90 io_out[21]
*91 io_out[22]
*92 io_out[23]
*93 io_out[24]
*94 io_out[25]
*95 io_out[26]
*96 io_out[27]
*97 io_out[28]
*98 io_out[29]
*99 io_out[2]
*100 io_out[30]
*101 io_out[31]
*102 io_out[32]
*103 io_out[33]
*104 io_out[34]
*105 io_out[35]
*106 io_out[36]
*107 io_out[37]
*108 io_out[3]
*109 io_out[4]
*110 io_out[5]
*111 io_out[6]
*112 io_out[7]
*113 io_out[8]
*114 io_out[9]
*115 la_data_in[0]
*116 la_data_in[10]
*117 la_data_in[11]
*118 la_data_in[12]
*119 la_data_in[13]
*120 la_data_in[14]
*121 la_data_in[15]
*122 la_data_in[16]
*123 la_data_in[17]
*124 la_data_in[18]
*125 la_data_in[19]
*126 la_data_in[1]
*127 la_data_in[20]
*128 la_data_in[21]
*129 la_data_in[22]
*130 la_data_in[23]
*131 la_data_in[24]
*132 la_data_in[25]
*133 la_data_in[26]
*134 la_data_in[27]
*135 la_data_in[28]
*136 la_data_in[29]
*137 la_data_in[2]
*138 la_data_in[30]
*139 la_data_in[31]
*140 la_data_in[32]
*141 la_data_in[33]
*142 la_data_in[34]
*143 la_data_in[35]
*144 la_data_in[36]
*145 la_data_in[37]
*146 la_data_in[38]
*147 la_data_in[39]
*148 la_data_in[3]
*149 la_data_in[40]
*150 la_data_in[41]
*151 la_data_in[42]
*152 la_data_in[43]
*153 la_data_in[44]
*154 la_data_in[45]
*155 la_data_in[46]
*156 la_data_in[47]
*157 la_data_in[48]
*158 la_data_in[49]
*159 la_data_in[4]
*160 la_data_in[50]
*161 la_data_in[51]
*162 la_data_in[52]
*163 la_data_in[53]
*164 la_data_in[54]
*165 la_data_in[55]
*166 la_data_in[56]
*167 la_data_in[57]
*168 la_data_in[58]
*169 la_data_in[59]
*170 la_data_in[5]
*171 la_data_in[60]
*172 la_data_in[61]
*173 la_data_in[62]
*174 la_data_in[63]
*175 la_data_in[6]
*176 la_data_in[7]
*177 la_data_in[8]
*178 la_data_in[9]
*179 la_data_out[0]
*180 la_data_out[10]
*181 la_data_out[11]
*182 la_data_out[12]
*183 la_data_out[13]
*184 la_data_out[14]
*185 la_data_out[15]
*186 la_data_out[16]
*187 la_data_out[17]
*188 la_data_out[18]
*189 la_data_out[19]
*190 la_data_out[1]
*191 la_data_out[20]
*192 la_data_out[21]
*193 la_data_out[22]
*194 la_data_out[23]
*195 la_data_out[24]
*196 la_data_out[25]
*197 la_data_out[26]
*198 la_data_out[27]
*199 la_data_out[28]
*200 la_data_out[29]
*201 la_data_out[2]
*202 la_data_out[30]
*203 la_data_out[31]
*204 la_data_out[32]
*205 la_data_out[33]
*206 la_data_out[34]
*207 la_data_out[35]
*208 la_data_out[36]
*209 la_data_out[37]
*210 la_data_out[38]
*211 la_data_out[39]
*212 la_data_out[3]
*213 la_data_out[40]
*214 la_data_out[41]
*215 la_data_out[42]
*216 la_data_out[43]
*217 la_data_out[44]
*218 la_data_out[45]
*219 la_data_out[46]
*220 la_data_out[47]
*221 la_data_out[48]
*222 la_data_out[49]
*223 la_data_out[4]
*224 la_data_out[50]
*225 la_data_out[51]
*226 la_data_out[52]
*227 la_data_out[53]
*228 la_data_out[54]
*229 la_data_out[55]
*230 la_data_out[56]
*231 la_data_out[57]
*232 la_data_out[58]
*233 la_data_out[59]
*234 la_data_out[5]
*235 la_data_out[60]
*236 la_data_out[61]
*237 la_data_out[62]
*238 la_data_out[63]
*239 la_data_out[6]
*240 la_data_out[7]
*241 la_data_out[8]
*242 la_data_out[9]
*243 la_oenb[0]
*244 la_oenb[10]
*245 la_oenb[11]
*246 la_oenb[12]
*247 la_oenb[13]
*248 la_oenb[14]
*249 la_oenb[15]
*250 la_oenb[16]
*251 la_oenb[17]
*252 la_oenb[18]
*253 la_oenb[19]
*254 la_oenb[1]
*255 la_oenb[20]
*256 la_oenb[21]
*257 la_oenb[22]
*258 la_oenb[23]
*259 la_oenb[24]
*260 la_oenb[25]
*261 la_oenb[26]
*262 la_oenb[27]
*263 la_oenb[28]
*264 la_oenb[29]
*265 la_oenb[2]
*266 la_oenb[30]
*267 la_oenb[31]
*268 la_oenb[32]
*269 la_oenb[33]
*270 la_oenb[34]
*271 la_oenb[35]
*272 la_oenb[36]
*273 la_oenb[37]
*274 la_oenb[38]
*275 la_oenb[39]
*276 la_oenb[3]
*277 la_oenb[40]
*278 la_oenb[41]
*279 la_oenb[42]
*280 la_oenb[43]
*281 la_oenb[44]
*282 la_oenb[45]
*283 la_oenb[46]
*284 la_oenb[47]
*285 la_oenb[48]
*286 la_oenb[49]
*287 la_oenb[4]
*288 la_oenb[50]
*289 la_oenb[51]
*290 la_oenb[52]
*291 la_oenb[53]
*292 la_oenb[54]
*293 la_oenb[55]
*294 la_oenb[56]
*295 la_oenb[57]
*296 la_oenb[58]
*297 la_oenb[59]
*298 la_oenb[5]
*299 la_oenb[60]
*300 la_oenb[61]
*301 la_oenb[62]
*302 la_oenb[63]
*303 la_oenb[6]
*304 la_oenb[7]
*305 la_oenb[8]
*306 la_oenb[9]
*307 user_clock2
*308 user_irq[0]
*309 user_irq[1]
*310 user_irq[2]
*313 wb_clk_i
*314 wb_rst_i
*315 wbs_ack_o
*316 wbs_adr_i[0]
*317 wbs_adr_i[10]
*318 wbs_adr_i[11]
*319 wbs_adr_i[12]
*320 wbs_adr_i[13]
*321 wbs_adr_i[14]
*322 wbs_adr_i[15]
*323 wbs_adr_i[16]
*324 wbs_adr_i[17]
*325 wbs_adr_i[18]
*326 wbs_adr_i[19]
*327 wbs_adr_i[1]
*328 wbs_adr_i[20]
*329 wbs_adr_i[21]
*330 wbs_adr_i[22]
*331 wbs_adr_i[23]
*332 wbs_adr_i[24]
*333 wbs_adr_i[25]
*334 wbs_adr_i[26]
*335 wbs_adr_i[27]
*336 wbs_adr_i[28]
*337 wbs_adr_i[29]
*338 wbs_adr_i[2]
*339 wbs_adr_i[30]
*340 wbs_adr_i[31]
*341 wbs_adr_i[3]
*342 wbs_adr_i[4]
*343 wbs_adr_i[5]
*344 wbs_adr_i[6]
*345 wbs_adr_i[7]
*346 wbs_adr_i[8]
*347 wbs_adr_i[9]
*348 wbs_cyc_i
*349 wbs_dat_i[0]
*350 wbs_dat_i[10]
*351 wbs_dat_i[11]
*352 wbs_dat_i[12]
*353 wbs_dat_i[13]
*354 wbs_dat_i[14]
*355 wbs_dat_i[15]
*356 wbs_dat_i[16]
*357 wbs_dat_i[17]
*358 wbs_dat_i[18]
*359 wbs_dat_i[19]
*360 wbs_dat_i[1]
*361 wbs_dat_i[20]
*362 wbs_dat_i[21]
*363 wbs_dat_i[22]
*364 wbs_dat_i[23]
*365 wbs_dat_i[24]
*366 wbs_dat_i[25]
*367 wbs_dat_i[26]
*368 wbs_dat_i[27]
*369 wbs_dat_i[28]
*370 wbs_dat_i[29]
*371 wbs_dat_i[2]
*372 wbs_dat_i[30]
*373 wbs_dat_i[31]
*374 wbs_dat_i[3]
*375 wbs_dat_i[4]
*376 wbs_dat_i[5]
*377 wbs_dat_i[6]
*378 wbs_dat_i[7]
*379 wbs_dat_i[8]
*380 wbs_dat_i[9]
*381 wbs_dat_o[0]
*382 wbs_dat_o[10]
*383 wbs_dat_o[11]
*384 wbs_dat_o[12]
*385 wbs_dat_o[13]
*386 wbs_dat_o[14]
*387 wbs_dat_o[15]
*388 wbs_dat_o[16]
*389 wbs_dat_o[17]
*390 wbs_dat_o[18]
*391 wbs_dat_o[19]
*392 wbs_dat_o[1]
*393 wbs_dat_o[20]
*394 wbs_dat_o[21]
*395 wbs_dat_o[22]
*396 wbs_dat_o[23]
*397 wbs_dat_o[24]
*398 wbs_dat_o[25]
*399 wbs_dat_o[26]
*400 wbs_dat_o[27]
*401 wbs_dat_o[28]
*402 wbs_dat_o[29]
*403 wbs_dat_o[2]
*404 wbs_dat_o[30]
*405 wbs_dat_o[31]
*406 wbs_dat_o[3]
*407 wbs_dat_o[4]
*408 wbs_dat_o[5]
*409 wbs_dat_o[6]
*410 wbs_dat_o[7]
*411 wbs_dat_o[8]
*412 wbs_dat_o[9]
*413 wbs_sel_i[0]
*414 wbs_sel_i[1]
*415 wbs_sel_i[2]
*416 wbs_sel_i[3]
*417 wbs_stb_i
*418 wbs_we_i
*419 mprj

*PORTS
io_in[0] I
io_in[10] I
io_in[11] I
io_in[12] I
io_in[13] I
io_in[14] I
io_in[15] I
io_in[16] I
io_in[17] I
io_in[18] I
io_in[19] I
io_in[1] I
io_in[20] I
io_in[21] I
io_in[22] I
io_in[23] I
io_in[24] I
io_in[25] I
io_in[26] I
io_in[27] I
io_in[28] I
io_in[29] I
io_in[2] I
io_in[30] I
io_in[31] I
io_in[32] I
io_in[33] I
io_in[34] I
io_in[35] I
io_in[36] I
io_in[37] I
io_in[3] I
io_in[4] I
io_in[5] I
io_in[6] I
io_in[7] I
io_in[8] I
io_in[9] I
io_oeb[0] O
io_oeb[10] O
io_oeb[11] O
io_oeb[12] O
io_oeb[13] O
io_oeb[14] O
io_oeb[15] O
io_oeb[16] O
io_oeb[17] O
io_oeb[18] O
io_oeb[19] O
io_oeb[1] O
io_oeb[20] O
io_oeb[21] O
io_oeb[22] O
io_oeb[23] O
io_oeb[24] O
io_oeb[25] O
io_oeb[26] O
io_oeb[27] O
io_oeb[28] O
io_oeb[29] O
io_oeb[2] O
io_oeb[30] O
io_oeb[31] O
io_oeb[32] O
io_oeb[33] O
io_oeb[34] O
io_oeb[35] O
io_oeb[36] O
io_oeb[37] O
io_oeb[3] O
io_oeb[4] O
io_oeb[5] O
io_oeb[6] O
io_oeb[7] O
io_oeb[8] O
io_oeb[9] O
io_out[0] O
io_out[10] O
io_out[11] O
io_out[12] O
io_out[13] O
io_out[14] O
io_out[15] O
io_out[16] O
io_out[17] O
io_out[18] O
io_out[19] O
io_out[1] O
io_out[20] O
io_out[21] O
io_out[22] O
io_out[23] O
io_out[24] O
io_out[25] O
io_out[26] O
io_out[27] O
io_out[28] O
io_out[29] O
io_out[2] O
io_out[30] O
io_out[31] O
io_out[32] O
io_out[33] O
io_out[34] O
io_out[35] O
io_out[36] O
io_out[37] O
io_out[3] O
io_out[4] O
io_out[5] O
io_out[6] O
io_out[7] O
io_out[8] O
io_out[9] O
la_data_in[0] I
la_data_in[10] I
la_data_in[11] I
la_data_in[12] I
la_data_in[13] I
la_data_in[14] I
la_data_in[15] I
la_data_in[16] I
la_data_in[17] I
la_data_in[18] I
la_data_in[19] I
la_data_in[1] I
la_data_in[20] I
la_data_in[21] I
la_data_in[22] I
la_data_in[23] I
la_data_in[24] I
la_data_in[25] I
la_data_in[26] I
la_data_in[27] I
la_data_in[28] I
la_data_in[29] I
la_data_in[2] I
la_data_in[30] I
la_data_in[31] I
la_data_in[32] I
la_data_in[33] I
la_data_in[34] I
la_data_in[35] I
la_data_in[36] I
la_data_in[37] I
la_data_in[38] I
la_data_in[39] I
la_data_in[3] I
la_data_in[40] I
la_data_in[41] I
la_data_in[42] I
la_data_in[43] I
la_data_in[44] I
la_data_in[45] I
la_data_in[46] I
la_data_in[47] I
la_data_in[48] I
la_data_in[49] I
la_data_in[4] I
la_data_in[50] I
la_data_in[51] I
la_data_in[52] I
la_data_in[53] I
la_data_in[54] I
la_data_in[55] I
la_data_in[56] I
la_data_in[57] I
la_data_in[58] I
la_data_in[59] I
la_data_in[5] I
la_data_in[60] I
la_data_in[61] I
la_data_in[62] I
la_data_in[63] I
la_data_in[6] I
la_data_in[7] I
la_data_in[8] I
la_data_in[9] I
la_data_out[0] O
la_data_out[10] O
la_data_out[11] O
la_data_out[12] O
la_data_out[13] O
la_data_out[14] O
la_data_out[15] O
la_data_out[16] O
la_data_out[17] O
la_data_out[18] O
la_data_out[19] O
la_data_out[1] O
la_data_out[20] O
la_data_out[21] O
la_data_out[22] O
la_data_out[23] O
la_data_out[24] O
la_data_out[25] O
la_data_out[26] O
la_data_out[27] O
la_data_out[28] O
la_data_out[29] O
la_data_out[2] O
la_data_out[30] O
la_data_out[31] O
la_data_out[32] O
la_data_out[33] O
la_data_out[34] O
la_data_out[35] O
la_data_out[36] O
la_data_out[37] O
la_data_out[38] O
la_data_out[39] O
la_data_out[3] O
la_data_out[40] O
la_data_out[41] O
la_data_out[42] O
la_data_out[43] O
la_data_out[44] O
la_data_out[45] O
la_data_out[46] O
la_data_out[47] O
la_data_out[48] O
la_data_out[49] O
la_data_out[4] O
la_data_out[50] O
la_data_out[51] O
la_data_out[52] O
la_data_out[53] O
la_data_out[54] O
la_data_out[55] O
la_data_out[56] O
la_data_out[57] O
la_data_out[58] O
la_data_out[59] O
la_data_out[5] O
la_data_out[60] O
la_data_out[61] O
la_data_out[62] O
la_data_out[63] O
la_data_out[6] O
la_data_out[7] O
la_data_out[8] O
la_data_out[9] O
la_oenb[0] I
la_oenb[10] I
la_oenb[11] I
la_oenb[12] I
la_oenb[13] I
la_oenb[14] I
la_oenb[15] I
la_oenb[16] I
la_oenb[17] I
la_oenb[18] I
la_oenb[19] I
la_oenb[1] I
la_oenb[20] I
la_oenb[21] I
la_oenb[22] I
la_oenb[23] I
la_oenb[24] I
la_oenb[25] I
la_oenb[26] I
la_oenb[27] I
la_oenb[28] I
la_oenb[29] I
la_oenb[2] I
la_oenb[30] I
la_oenb[31] I
la_oenb[32] I
la_oenb[33] I
la_oenb[34] I
la_oenb[35] I
la_oenb[36] I
la_oenb[37] I
la_oenb[38] I
la_oenb[39] I
la_oenb[3] I
la_oenb[40] I
la_oenb[41] I
la_oenb[42] I
la_oenb[43] I
la_oenb[44] I
la_oenb[45] I
la_oenb[46] I
la_oenb[47] I
la_oenb[48] I
la_oenb[49] I
la_oenb[4] I
la_oenb[50] I
la_oenb[51] I
la_oenb[52] I
la_oenb[53] I
la_oenb[54] I
la_oenb[55] I
la_oenb[56] I
la_oenb[57] I
la_oenb[58] I
la_oenb[59] I
la_oenb[5] I
la_oenb[60] I
la_oenb[61] I
la_oenb[62] I
la_oenb[63] I
la_oenb[6] I
la_oenb[7] I
la_oenb[8] I
la_oenb[9] I
user_clock2 I
user_irq[0] O
user_irq[1] O
user_irq[2] O
wb_clk_i I
wb_rst_i I
wbs_ack_o O
wbs_adr_i[0] I
wbs_adr_i[10] I
wbs_adr_i[11] I
wbs_adr_i[12] I
wbs_adr_i[13] I
wbs_adr_i[14] I
wbs_adr_i[15] I
wbs_adr_i[16] I
wbs_adr_i[17] I
wbs_adr_i[18] I
wbs_adr_i[19] I
wbs_adr_i[1] I
wbs_adr_i[20] I
wbs_adr_i[21] I
wbs_adr_i[22] I
wbs_adr_i[23] I
wbs_adr_i[24] I
wbs_adr_i[25] I
wbs_adr_i[26] I
wbs_adr_i[27] I
wbs_adr_i[28] I
wbs_adr_i[29] I
wbs_adr_i[2] I
wbs_adr_i[30] I
wbs_adr_i[31] I
wbs_adr_i[3] I
wbs_adr_i[4] I
wbs_adr_i[5] I
wbs_adr_i[6] I
wbs_adr_i[7] I
wbs_adr_i[8] I
wbs_adr_i[9] I
wbs_cyc_i I
wbs_dat_i[0] I
wbs_dat_i[10] I
wbs_dat_i[11] I
wbs_dat_i[12] I
wbs_dat_i[13] I
wbs_dat_i[14] I
wbs_dat_i[15] I
wbs_dat_i[16] I
wbs_dat_i[17] I
wbs_dat_i[18] I
wbs_dat_i[19] I
wbs_dat_i[1] I
wbs_dat_i[20] I
wbs_dat_i[21] I
wbs_dat_i[22] I
wbs_dat_i[23] I
wbs_dat_i[24] I
wbs_dat_i[25] I
wbs_dat_i[26] I
wbs_dat_i[27] I
wbs_dat_i[28] I
wbs_dat_i[29] I
wbs_dat_i[2] I
wbs_dat_i[30] I
wbs_dat_i[31] I
wbs_dat_i[3] I
wbs_dat_i[4] I
wbs_dat_i[5] I
wbs_dat_i[6] I
wbs_dat_i[7] I
wbs_dat_i[8] I
wbs_dat_i[9] I
wbs_dat_o[0] O
wbs_dat_o[10] O
wbs_dat_o[11] O
wbs_dat_o[12] O
wbs_dat_o[13] O
wbs_dat_o[14] O
wbs_dat_o[15] O
wbs_dat_o[16] O
wbs_dat_o[17] O
wbs_dat_o[18] O
wbs_dat_o[19] O
wbs_dat_o[1] O
wbs_dat_o[20] O
wbs_dat_o[21] O
wbs_dat_o[22] O
wbs_dat_o[23] O
wbs_dat_o[24] O
wbs_dat_o[25] O
wbs_dat_o[26] O
wbs_dat_o[27] O
wbs_dat_o[28] O
wbs_dat_o[29] O
wbs_dat_o[2] O
wbs_dat_o[30] O
wbs_dat_o[31] O
wbs_dat_o[3] O
wbs_dat_o[4] O
wbs_dat_o[5] O
wbs_dat_o[6] O
wbs_dat_o[7] O
wbs_dat_o[8] O
wbs_dat_o[9] O
wbs_sel_i[0] I
wbs_sel_i[1] I
wbs_sel_i[2] I
wbs_sel_i[3] I
wbs_stb_i I
wbs_we_i I

*D_NET *1 0.459054
*CONN
*P io_in[0] I
*I *419:io_in[0] I *D tiny_user_project
*CAP
1 io_in[0] 0.00353166
2 *419:io_in[0] 0.00162432
3 *1:14 0.0316228
4 *1:13 0.0299985
5 *1:11 0.0672592
6 *1:10 0.0707909
7 *419:io_in[0] *419:io_in[27] 0.00223679
8 *1:11 *117:16 0.0588674
9 *1:14 *4:16 0.00640619
10 *1:14 *122:19 0.0121998
11 *1:14 *165:19 0.0265362
12 *1:14 *212:13 0.146619
13 *1:14 *220:13 0.00136177
*RES
1 io_in[0] *1:10 36.675 
2 *1:10 *1:11 576.63 
3 *1:11 *1:13 4.5 
4 *1:13 *1:14 482.49 
5 *1:14 *419:io_in[0] 29.61 
*END

*D_NET *2 0.211449
*CONN
*P io_in[10] I
*I *419:io_in[10] I *D tiny_user_project
*CAP
1 io_in[10] 0.0047001
2 *419:io_in[10] 0.0010623
3 *2:12 0.00978869
4 *2:11 0.00872638
5 *2:9 0.069706
6 *2:7 0.0744061
7 *419:io_in[10] *220:12 0.000666701
8 *2:12 *75:13 0.0139608
9 *2:12 *145:35 0.0070552
10 *2:12 *197:13 0.0213764
*RES
1 io_in[10] *2:7 37.305 
2 *2:7 *2:9 543.06 
3 *2:9 *2:11 4.5 
4 *2:11 *2:12 130.41 
5 *2:12 *419:io_in[10] 22.32 
*END

*D_NET *3 0.348751
*CONN
*P io_in[11] I
*I *419:io_in[11] I *D tiny_user_project
*CAP
1 io_in[11] 0.000363112
2 *419:io_in[11] 0.00174587
3 *3:16 0.015188
4 *3:15 0.0134421
5 *3:13 0.0920964
6 *3:11 0.0924595
7 *419:io_in[11] *419:io_in[14] 6.67147e-05
8 *419:io_in[11] *103:12 0
9 *3:16 *43:13 0.103566
10 *3:16 *182:13 0.0298231
*RES
1 io_in[11] *3:11 3.195 
2 *3:11 *3:13 582.57 
3 *3:13 *3:15 4.5 
4 *3:15 *3:16 265.95 
5 *3:16 *419:io_in[11] 25.38 
*END

*D_NET *4 0.285484
*CONN
*P io_in[12] I
*I *419:io_in[12] I *D tiny_user_project
*CAP
1 io_in[12] 0.000167227
2 *419:io_in[12] 0.00124235
3 *4:16 0.024498
4 *4:15 0.0232556
5 *4:13 0.0748981
6 *4:11 0.0750654
7 *419:io_in[12] *419:la_oenb[28] 0.00506305
8 *4:16 *82:15 0.037029
9 *4:16 *122:19 0.037859
10 *1:14 *4:16 0.00640619
*RES
1 io_in[12] *4:11 2.115 
2 *4:11 *4:13 585.09 
3 *4:13 *4:15 4.5 
4 *4:15 *4:16 278.01 
5 *4:16 *419:io_in[12] 27.72 
*END

*D_NET *5 0.304605
*CONN
*P io_in[13] I
*I *419:io_in[13] I *D tiny_user_project
*CAP
1 io_in[13] 0.0755418
2 *419:io_in[13] 0.00297208
3 *5:8 0.0405012
4 *5:7 0.0375291
5 *5:5 0.0755418
6 *419:io_in[13] *140:33 0
7 *5:8 *19:12 0
8 *5:8 *70:13 0.027463
9 *5:8 *120:19 0.0370556
10 *5:8 *223:14 0.0080006
*RES
1 io_in[13] *5:5 590.625 
2 *5:5 *5:7 4.5 
3 *5:7 *5:8 383.49 
4 *5:8 *419:io_in[13] 34.02 
*END

*D_NET *6 0.313098
*CONN
*P io_in[14] I
*I *419:io_in[14] I *D tiny_user_project
*CAP
1 io_in[14] 0.000264341
2 *419:io_in[14] 0.00355665
3 *6:16 0.0561535
4 *6:15 0.0525969
5 *6:13 0.075776
6 *6:11 0.0760403
7 *419:io_in[14] *103:9 0.000154731
8 *6:16 *227:13 0.0484892
9 *419:io_in[11] *419:io_in[14] 6.67147e-05
*RES
1 io_in[14] *6:11 2.655 
2 *6:11 *6:13 593.01 
3 *6:13 *6:15 4.5 
4 *6:15 *6:16 459.09 
5 *6:16 *419:io_in[14] 38.07 
*END

*D_NET *7 0.328334
*CONN
*P io_in[15] I
*I *419:io_in[15] I *D tiny_user_project
*CAP
1 io_in[15] 0.00105188
2 *419:io_in[15] 7.34135e-05
3 *7:11 0.0475583
4 *7:10 0.0474849
5 *7:8 0.0307982
6 *7:7 0.0318501
7 *419:io_in[15] *207:16 2.165e-05
8 *7:8 io_out[18] 0.0121174
9 *7:8 *10:10 0.000549658
10 *7:8 *13:8 0.00861626
11 *7:8 *46:17 0.026839
12 *7:8 *51:17 0.00330147
13 *7:8 *54:19 0.035613
14 *7:8 *83:17 0.0823981
15 *7:11 *207:16 6.12139e-05
*RES
1 io_in[15] *7:7 12.645 
2 *7:7 *7:8 457.83 
3 *7:8 *7:10 4.5 
4 *7:10 *7:11 357.75 
5 *7:11 *419:io_in[15] 9.63 
*END

*D_NET *8 0.208037
*CONN
*P io_in[16] I
*I *419:io_in[16] I *D tiny_user_project
*CAP
1 io_in[16] 0.000247817
2 *419:io_in[16] 0.000416313
3 *8:22 0.0314876
4 *8:21 0.0310712
5 *8:19 0.0192913
6 *8:18 0.0220186
7 *8:13 0.0529277
8 *8:11 0.0504482
9 *8:19 *225:19 0
10 *8:22 *419:la_data_in[20] 0.000127808
*RES
1 io_in[16] *8:11 2.655 
2 *8:11 *8:13 383.67 
3 *8:13 *8:18 29.43 
4 *8:18 *8:19 147.15 
5 *8:19 *8:21 4.5 
6 *8:21 *8:22 230.94 
7 *8:22 *419:io_in[16] 3.015 
*END

*D_NET *9 0.138926
*CONN
*P io_in[17] I
*I *419:io_in[17] I *D tiny_user_project
*CAP
1 io_in[17] 0.0014675
2 *419:io_in[17] 0.00199809
3 *9:11 0.0502616
4 *9:10 0.0482635
5 *9:8 0.0171027
6 *9:7 0.0185702
7 *419:io_in[17] *419:la_data_in[10] 0.000372541
8 *419:io_in[17] *264:16 0
9 *9:8 *44:17 0
10 *9:11 *11:19 0
11 *9:11 *257:11 0.000890334
*RES
1 io_in[17] *9:7 15.525 
2 *9:7 *9:8 134.37 
3 *9:8 *9:10 4.5 
4 *9:10 *9:11 367.29 
5 *9:11 *419:io_in[17] 19.395 
*END

*D_NET *10 0.153323
*CONN
*P io_in[18] I
*I *419:io_in[18] I *D tiny_user_project
*CAP
1 io_in[18] 0.00218498
2 *419:io_in[18] 0
3 *10:21 0.00549664
4 *10:14 0.0118269
5 *10:13 0.00633022
6 *10:11 0.0420546
7 *10:10 0.0442396
8 *10:10 io_out[18] 0.0012299
9 *10:11 *53:16 0
10 *10:14 *45:17 0.0390479
11 *10:14 *76:17 0.000362094
12 *7:8 *10:10 0.000549658
*RES
1 io_in[18] *10:10 29.475 
2 *10:10 *10:11 323.37 
3 *10:11 *10:13 4.5 
4 *10:13 *10:14 97.83 
5 *10:14 *10:21 48.06 
6 *10:21 *419:io_in[18] 9 
*END

*D_NET *11 0.268293
*CONN
*P io_in[19] I
*I *419:io_in[19] I *D tiny_user_project
*CAP
1 io_in[19] 0.000178873
2 *419:io_in[19] 0.00259513
3 *11:19 0.0158308
4 *11:18 0.0132356
5 *11:16 0.00835811
6 *11:15 0.00835811
7 *11:13 0.0436394
8 *11:11 0.0438183
9 *11:16 *48:16 0.0140844
10 *11:16 *309:11 0
11 *11:19 *67:12 0.0740041
12 *11:19 *355:19 0.0441907
13 *9:11 *11:19 0
*RES
1 io_in[19] *11:11 2.115 
2 *11:11 *11:13 334.89 
3 *11:13 *11:15 4.5 
4 *11:15 *11:16 81.27 
5 *11:16 *11:18 4.5 
6 *11:18 *11:19 241.11 
7 *11:19 *419:io_in[19] 21.015 
*END

*D_NET *12 0.435109
*CONN
*P io_in[1] I
*I *419:io_in[1] I *D tiny_user_project
*CAP
1 io_in[1] 0.000370905
2 *419:io_in[1] 0.00119559
3 *12:19 0.00488602
4 *12:18 0.00369043
5 *12:16 0.0688795
6 *12:15 0.0688795
7 *12:13 0.0234734
8 *12:11 0.0238443
9 *419:io_in[1] *419:la_oenb[37] 0
10 *419:io_in[1] *419:wbs_adr_i[24] 0
11 *419:io_in[1] *317:12 4.21968e-05
12 *419:io_in[1] *384:17 8.56716e-05
13 *12:16 *284:5 0
14 *12:19 *29:19 0.0628228
15 *12:19 *50:11 0.0406685
16 *12:19 *74:11 0.0109868
17 *12:19 *132:14 0.000873614
18 *12:19 *137:14 0.0260359
19 *12:19 *164:16 0.0983741
*RES
1 io_in[1] *12:11 3.195 
2 *12:11 *12:13 178.47 
3 *12:13 *12:15 4.5 
4 *12:15 *12:16 524.61 
5 *12:16 *12:18 4.5 
6 *12:18 *12:19 380.97 
7 *12:19 *419:io_in[1] 20.61 
*END

*D_NET *13 0.156334
*CONN
*P io_in[20] I
*I *419:io_in[20] I *D tiny_user_project
*CAP
1 io_in[20] 0.00100592
2 *419:io_in[20] 4.03929e-05
3 *13:11 0.047629
4 *13:10 0.0475886
5 *13:8 0.00879893
6 *13:7 0.00980485
7 *419:io_in[20] *112:59 0.000122974
8 *13:8 *51:17 0.0327271
9 *7:8 *13:8 0.00861626
*RES
1 io_in[20] *13:7 12.285 
2 *13:7 *13:8 128.97 
3 *13:8 *13:10 4.5 
4 *13:10 *13:11 358.11 
5 *13:11 *419:io_in[20] 18.63 
*END

*D_NET *14 0.298157
*CONN
*P io_in[21] I
*I *419:io_in[21] I *D tiny_user_project
*CAP
1 io_in[21] 0.00200056
2 *419:io_in[21] 0.000752437
3 *14:14 0.00426641
4 *14:13 0.00351397
5 *14:11 0.0764222
6 *14:10 0.0784227
7 *419:io_in[21] *419:la_data_in[36] 6.4772e-05
8 *14:10 *54:19 0.00629802
9 *14:14 *17:19 0.0839168
10 *14:14 *52:14 0.00370047
11 *14:14 *200:13 0.00840546
12 *14:14 *374:16 0.00434499
13 *14:14 *383:13 0.0124888
14 *14:14 *401:11 0.0135594
*RES
1 io_in[21] *14:10 32.715 
2 *14:10 *14:11 580.23 
3 *14:11 *14:13 4.5 
4 *14:13 *14:14 213.39 
5 *14:14 *419:io_in[21] 18.1565 
*END

*D_NET *15 0.200913
*CONN
*P io_in[22] I
*I *419:io_in[22] I *D tiny_user_project
*CAP
1 io_in[22] 0.00483482
2 *419:io_in[22] 0.0020116
3 *15:12 0.0472063
4 *15:11 0.0451947
5 *15:9 0.0405952
6 *15:7 0.04543
7 *419:io_in[22] *419:la_oenb[2] 1.54452e-05
8 *419:io_in[22] *60:20 0.000100669
9 *419:io_in[22] *124:11 0
10 *419:io_in[22] *187:14 0.00539479
11 *419:io_in[22] *240:15 1.18319e-05
12 *15:12 *119:26 0.00226033
13 *15:12 *167:16 0
14 *15:12 *187:11 0.00748189
15 *15:12 *267:16 0.000374895
16 *15:12 *328:12 0
17 *15:12 *337:16 0
*RES
1 io_in[22] *15:7 37.305 
2 *15:7 *15:9 311.94 
3 *15:9 *15:11 4.5 
4 *15:11 *15:12 383.85 
5 *15:12 *419:io_in[22] 40.77 
*END

*D_NET *16 0.243591
*CONN
*P io_in[23] I
*I *419:io_in[23] I *D tiny_user_project
*CAP
1 io_in[23] 0.000345489
2 *419:io_in[23] 0.0011596
3 *16:19 0.016826
4 *16:18 0.0156664
5 *16:16 0.0642297
6 *16:15 0.0642297
7 *16:13 0.0344561
8 *16:11 0.0348016
9 *419:io_in[23] *169:16 0
10 *16:16 *58:17 0
11 *16:19 *131:19 0.0118768
*RES
1 io_in[23] *16:11 3.195 
2 *16:11 *16:13 264.87 
3 *16:13 *16:15 4.5 
4 *16:15 *16:16 499.59 
5 *16:16 *16:18 4.5 
6 *16:18 *16:19 128.61 
7 *16:19 *419:io_in[23] 12.735 
*END

*D_NET *17 0.401862
*CONN
*P io_in[24] I
*I *419:io_in[24] I *D tiny_user_project
*CAP
1 io_in[24] 0.000201168
2 *419:io_in[24] 0.000758871
3 *17:19 0.00622764
4 *17:18 0.00546877
5 *17:16 0.0753765
6 *17:15 0.0753765
7 *17:13 0.0448926
8 *17:11 0.0450937
9 *419:io_in[24] *419:wbs_dat_i[2] 5.94588e-05
10 *17:19 *18:19 0.0115689
11 *17:19 *42:11 0.0170974
12 *17:19 *52:14 0.000916214
13 *17:19 *73:16 0.023158
14 *17:19 *113:11 0.00774406
15 *17:19 *383:13 0.00400515
16 *14:14 *17:19 0.0839168
*RES
1 io_in[24] *17:11 1.935 
2 *17:11 *17:13 284.31 
3 *17:13 *17:15 4.5 
4 *17:15 *17:16 573.21 
5 *17:16 *17:18 4.5 
6 *17:18 *17:19 270.63 
7 *17:19 *419:io_in[24] 17.9765 
*END

*D_NET *18 0.269159
*CONN
*P io_in[25] I
*I *419:io_in[25] I *D tiny_user_project
*CAP
1 io_in[25] 0.000125876
2 *419:io_in[25] 0.00065925
3 *18:19 0.014942
4 *18:18 0.0142827
5 *18:16 0.0664626
6 *18:15 0.0664626
7 *18:13 0.0410272
8 *18:11 0.041153
9 *18:19 *26:11 0
10 *18:19 *73:16 0.0117131
11 *18:19 *241:18 0
12 *18:19 *383:13 0.00076141
13 *17:19 *18:19 0.0115689
*RES
1 io_in[25] *18:11 1.395 
2 *18:11 *18:13 260.01 
3 *18:13 *18:15 4.5 
4 *18:15 *18:16 505.17 
5 *18:16 *18:18 4.5 
6 *18:18 *18:19 152.37 
7 *18:19 *419:io_in[25] 17.4365 
*END

*D_NET *19 0.171074
*CONN
*P io_in[26] I
*I *419:io_in[26] I *D tiny_user_project
*CAP
1 io_in[26] 0.00177706
2 *419:io_in[26] 0.00283143
3 *19:12 0.0363984
4 *19:11 0.033567
5 *19:9 0.0454587
6 *19:7 0.0472357
7 *419:io_in[26] *419:wbs_stb_i 2.85162e-05
8 *19:12 *89:18 0
9 *19:12 *159:19 0.000969786
10 *19:12 *223:14 0
11 *19:12 *246:11 0.00280709
12 *5:8 *19:12 0
*RES
1 io_in[26] *19:7 13.185 
2 *19:7 *19:9 355.14 
3 *19:9 *19:11 4.5 
4 *19:11 *19:12 264.69 
5 *19:12 *419:io_in[26] 33.39 
*END

*D_NET *20 0.161377
*CONN
*P io_in[27] I
*I *419:io_in[27] I *D tiny_user_project
*CAP
1 io_in[27] 0.00035683
2 *419:io_in[27] 0.0038337
3 *20:16 0.0337399
4 *20:15 0.0299062
5 *20:13 0.0454733
6 *20:11 0.0458301
7 *20:16 *135:15 0
8 *419:io_in[0] *419:io_in[27] 0.00223679
*RES
1 io_in[27] *20:11 3.015 
2 *20:11 *20:13 354.51 
3 *20:13 *20:15 4.5 
4 *20:15 *20:16 224.19 
5 *20:16 *419:io_in[27] 45.18 
*END

*D_NET *21 0.138071
*CONN
*P io_in[28] I
*I *419:io_in[28] I *D tiny_user_project
*CAP
1 io_in[28] 0.000249598
2 *419:io_in[28] 0.000214255
3 *21:19 0.0283701
4 *21:18 0.0281559
5 *21:16 0.0182199
6 *21:15 0.0182199
7 *21:13 0.0221957
8 *21:11 0.0224453
9 *419:io_in[28] *419:wbs_dat_i[10] 0
*RES
1 io_in[28] *21:11 2.475 
2 *21:11 *21:13 173.61 
3 *21:13 *21:15 4.5 
4 *21:15 *21:16 137.79 
5 *21:16 *21:18 4.5 
6 *21:18 *21:19 211.41 
7 *21:19 *419:io_in[28] 10.71 
*END

*D_NET *22 0.129284
*CONN
*P io_in[29] I
*I *419:io_in[29] I *D tiny_user_project
*CAP
1 io_in[29] 0.00117627
2 *419:io_in[29] 0.000370459
3 *22:11 0.049935
4 *22:10 0.0495646
5 *22:8 0.0135309
6 *22:7 0.0147071
*RES
1 io_in[29] *22:7 13.365 
2 *22:7 *22:8 103.95 
3 *22:8 *22:10 4.5 
4 *22:10 *22:11 376.11 
5 *22:11 *419:io_in[29] 11.79 
*END

*D_NET *23 0.340631
*CONN
*P io_in[2] I
*I *419:io_in[2] I *D tiny_user_project
*CAP
1 io_in[2] 0.000509679
2 *419:io_in[2] 0.000685138
3 *23:11 0.0491138
4 *23:10 0.0484286
5 *23:8 0.0262082
6 *23:7 0.0267179
7 *419:io_in[2] *419:io_in[3] 0
8 *419:io_in[2] *37:11 0.00197741
9 *419:io_in[2] *152:12 0.00108368
10 *23:8 *32:8 0.149962
11 *23:8 *39:12 0.00138345
12 *23:8 *40:16 0.0270087
13 *23:8 *99:14 0.00755167
*RES
1 io_in[2] *23:7 8.505 
2 *23:7 *23:8 448.11 
3 *23:8 *23:10 4.5 
4 *23:10 *23:11 370.35 
5 *23:11 *419:io_in[2] 17.325 
*END

*D_NET *24 0.340449
*CONN
*P io_in[30] I
*I *419:io_in[30] I *D tiny_user_project
*CAP
1 io_in[30] 0.000113196
2 *419:io_in[30] 0.000897356
3 *24:19 0.0234965
4 *24:18 0.0225992
5 *24:16 0.0216814
6 *24:15 0.0216814
7 *24:13 0.009388
8 *24:11 0.00950119
9 *419:io_in[30] *52:14 0
10 *419:io_in[30] *79:10 1.29294e-05
11 *419:io_in[30] *253:19 0
12 *24:19 *93:11 0
13 *24:19 *111:16 0.0552551
14 *24:19 *374:16 0.175823
*RES
1 io_in[30] *24:11 1.395 
2 *24:11 *24:13 71.01 
3 *24:13 *24:15 4.5 
4 *24:15 *24:16 166.41 
5 *24:16 *24:18 4.5 
6 *24:18 *24:19 448.29 
7 *24:19 *419:io_in[30] 18.8765 
*END

*D_NET *25 0.108333
*CONN
*P io_in[31] I
*I *419:io_in[31] I *D tiny_user_project
*CAP
1 io_in[31] 0.00638456
2 *419:io_in[31] 0.000150089
3 *25:15 0.0423445
4 *25:14 0.0432641
5 *25:9 0.00745417
6 *419:io_in[31] *419:la_oenb[39] 0
7 *25:15 *275:28 0.00873546
*RES
1 io_in[31] *25:9 48.465 
2 *25:9 *25:14 17.19 
3 *25:14 *25:15 336.87 
4 *25:15 *419:io_in[31] 10.17 
*END

*D_NET *26 0.258168
*CONN
*P io_in[32] I
*I *419:io_in[32] I *D tiny_user_project
*CAP
1 io_in[32] 0.00453854
2 *419:io_in[32] 0.00172589
3 *26:11 0.0495955
4 *26:10 0.0524081
5 *419:io_in[32] *73:16 0.00464428
6 *419:io_in[32] *253:20 0
7 *26:11 *52:17 0.115065
8 *26:11 *62:7 0
9 *26:11 *73:16 0
10 *26:11 *79:11 0.00480307
11 *26:11 *241:18 0.0148581
12 *26:11 *253:20 0.0105291
13 *18:19 *26:11 0
*RES
1 io_in[32] *26:10 43.335 
2 *26:10 *26:11 541.35 
3 *26:11 *419:io_in[32] 39.7565 
*END

*D_NET *27 0.122624
*CONN
*P io_in[33] I
*I *419:io_in[33] I *D tiny_user_project
*CAP
1 io_in[33] 0.000242542
2 *419:io_in[33] 0.000150089
3 *27:19 0.0382005
4 *27:18 0.0380504
5 *27:16 0.0086544
6 *27:15 0.0086544
7 *27:13 0.0114616
8 *27:11 0.0117041
9 *419:io_in[33] *419:la_oenb[47] 0
10 *27:13 *375:16 0
11 *27:19 *419:la_oenb[47] 0.00544031
12 *27:19 *284:16 6.51982e-05
*RES
1 io_in[33] *27:11 2.475 
2 *27:11 *27:13 87.21 
3 *27:13 *27:15 4.5 
4 *27:15 *27:16 64.89 
5 *27:16 *27:18 4.5 
6 *27:18 *27:19 297.81 
7 *27:19 *419:io_in[33] 10.17 
*END

*D_NET *28 0.201102
*CONN
*P io_in[34] I
*I *419:io_in[34] I *D tiny_user_project
*CAP
1 io_in[34] 0.000177869
2 *419:io_in[34] 0.000193783
3 *28:19 0.0102694
4 *28:18 0.0100756
5 *28:16 0.0394456
6 *28:15 0.0394456
7 *28:13 0.0386652
8 *28:11 0.0388431
9 *419:io_in[34] *419:la_data_in[27] 1.41827e-05
10 *28:13 *330:14 0
11 *28:16 *399:20 0
12 *28:19 *419:la_data_in[27] 0.00877307
13 *28:19 *60:27 0.0151988
14 *28:19 *395:17 0
*RES
1 io_in[34] *28:11 1.935 
2 *28:11 *28:13 292.41 
3 *28:13 *28:15 4.5 
4 *28:15 *28:16 294.57 
5 *28:16 *28:18 4.5 
6 *28:18 *28:19 92.61 
7 *28:19 *419:io_in[34] 9.99 
*END

*D_NET *29 0.410765
*CONN
*P io_in[35] I
*I *419:io_in[35] I *D tiny_user_project
*CAP
1 io_in[35] 0.000113196
2 *419:io_in[35] 0.00117012
3 *29:19 0.00673941
4 *29:18 0.00556929
5 *29:16 0.0530881
6 *29:15 0.0530881
7 *29:13 0.0222311
8 *29:11 0.0223443
9 *419:io_in[35] *384:16 1.00066e-05
10 *29:16 *353:13 0
11 *29:19 *38:11 0.00219467
12 *29:19 *50:11 0.0509614
13 *29:19 *68:11 0.0261411
14 *29:19 *112:27 0.0139472
15 *29:19 *137:14 0.000720964
16 *29:19 *414:16 0.0896231
17 *12:19 *29:19 0.0628228
*RES
1 io_in[35] *29:11 1.395 
2 *29:11 *29:13 168.21 
3 *29:13 *29:15 4.5 
4 *29:15 *29:16 402.93 
5 *29:16 *29:18 4.5 
6 *29:18 *29:19 387.81 
7 *29:19 *419:io_in[35] 28.98 
*END

*D_NET *30 0.411679
*CONN
*P io_in[36] I
*I *419:io_in[36] I *D tiny_user_project
*CAP
1 io_in[36] 0.00177706
2 *419:io_in[36] 0.00289862
3 *30:12 0.0248302
4 *30:11 0.0219316
5 *30:9 0.0777372
6 *30:7 0.0795143
7 *419:io_in[36] *419:wbs_dat_i[0] 9.73731e-05
8 *419:io_in[36] *169:16 0
9 *30:12 *94:12 0.0685751
10 *30:12 *123:11 0.113325
11 *30:12 *262:11 0
12 *30:12 *409:12 0.0209918
*RES
1 io_in[36] *30:7 13.185 
2 *30:7 *30:9 583.56 
3 *30:9 *30:11 4.5 
4 *30:11 *30:12 440.37 
5 *30:12 *419:io_in[36] 23.715 
*END

*D_NET *31 0.423382
*CONN
*P io_in[37] I
*I *419:io_in[37] I *D tiny_user_project
*CAP
1 io_in[37] 0.000323383
2 *419:io_in[37] 0.00215571
3 *31:16 0.0351416
4 *31:15 0.0329859
5 *31:13 0.0797312
6 *31:11 0.0800546
7 *419:io_in[37] *419:la_data_in[23] 6.5189e-05
8 *419:io_in[37] *91:16 0.000259615
9 *419:io_in[37] *308:11 7.46448e-05
10 *419:io_in[37] *308:13 0.00337144
11 *31:13 *206:11 0